CHEMBL1651179
     RDKit          2D

 33 36  0  0  0  0  0  0  0  0999 V2000
   -8.2500   -6.4952    0.0000 C   0  0  0  0  0  0  0  0  0  0  0  0
   -7.5000   -5.1962    0.0000 C   0  0  0  0  0  0  0  0  0  0  0  0
   -6.0000   -5.1962    0.0000 N   0  0  0  0  0  0  0  0  0  0  0  0
   -5.2500   -6.4952    0.0000 C   0  0  0  0  0  0  0  0  0  0  0  0
   -6.0000   -7.7942    0.0000 C   0  0  0  0  0  0  0  0  0  0  0  0
   -5.2500   -3.8971    0.0000 C   0  0  0  0  0  0  0  0  0  0  0  0
   -3.7500   -3.8971    0.0000 C   0  0  0  0  0  0  0  0  0  0  0  0
   -3.0000   -2.5981    0.0000 O   0  0  0  0  0  0  0  0  0  0  0  0
   -1.5000   -2.5981    0.0000 C   0  0  0  0  0  0  0  0  0  0  0  0
   -0.7500   -3.8971    0.0000 C   0  0  0  0  0  0  0  0  0  0  0  0
    0.7500   -3.8971    0.0000 C   0  0  0  0  0  0  0  0  0  0  0  0
    1.5000   -5.1962    0.0000 C   0  0  0  0  0  0  0  0  0  0  0  0
    0.7500   -6.4952    0.0000 C   0  0  0  0  0  0  0  0  0  0  0  0
    1.5000   -7.7942    0.0000 C   0  0  0  0  0  0  0  0  0  0  0  0
    3.0000   -7.7942    0.0000 C   0  0  0  0  0  0  0  0  0  0  0  0
    3.7500   -9.0933    0.0000 O   0  0  0  0  0  0  0  0  0  0  0  0
    3.0000  -10.3923    0.0000 C   0  0  0  0  0  0  0  0  0  0  0  0
    3.7500  -11.6913    0.0000 C   0  0  0  0  0  0  0  0  0  0  0  0
    3.0000  -12.9904    0.0000 N   0  0  0  0  0  0  0  0  0  0  0  0
    1.5000  -12.9904    0.0000 C   0  0  0  0  0  0  0  0  0  0  0  0
    0.7500  -14.2894    0.0000 C   0  0  0  0  0  0  0  0  0  0  0  0
    1.5000  -15.5885    0.0000 C   0  0  0  0  0  0  0  0  0  0  0  0
    3.0000  -15.5885    0.0000 C   0  0  0  0  0  0  0  0  0  0  0  0
    3.7500  -14.2894    0.0000 C   0  0  0  0  0  0  0  0  0  0  0  0
    3.7500   -6.4952    0.0000 C   0  0  0  0  0  0  0  0  0  0  0  0
    3.0000   -5.1962    0.0000 C   0  0  0  0  0  0  0  0  0  0  0  0
    1.5000   -2.5981    0.0000 N   0  0  0  0  0  0  0  0  0  0  0  0
    0.7500   -1.2990    0.0000 C   0  0  0  0  0  0  0  0  0  0  0  0
    1.5000    0.0000    0.0000 C   0  0  0  0  0  0  0  0  0  0  0  0
    0.7500    1.2990    0.0000 C   0  0  0  0  0  0  0  0  0  0  0  0
   -0.7500    1.2990    0.0000 C   0  0  0  0  0  0  0  0  0  0  0  0
   -1.5000    0.0000    0.0000 C   0  0  0  0  0  0  0  0  0  0  0  0
   -0.7500   -1.2990    0.0000 C   0  0  0  0  0  0  0  0  0  0  0  0
  1  2  1  0
  2  3  1  0
  3  4  1  0
  4  5  1  0
  3  6  1  0
  6  7  1  0
  7  8  1  0
  8  9  1  0
  9 10  2  0
 10 11  1  0
 11 12  1  0
 12 13  2  0
 13 14  1  0
 14 15  2  0
 15 16  1  0
 16 17  1  0
 17 18  1  0
 18 19  1  0
 19 20  1  0
 20 21  1  0
 21 22  1  0
 22 23  1  0
 23 24  1  0
 15 25  1  0
 25 26  2  0
 11 27  2  0
 27 28  1  0
 28 29  2  0
 29 30  1  0
 30 31  2  0
 31 32  1  0
 32 33  2  0
 33  9  1  0
 26 12  1  0
 33 28  1  0
 24 19  1  0
M  END
>  <Unnamed: 0>  (1) 
40

>  <atc_classifications>  (1) 
[]

>  <availability_type>  (1) 
-1

>  <biotherapeutic>  (1) 
nan

>  <black_box_warning>  (1) 
0

>  <chebi_par_id>  (1) 
nan

>  <chemical_probe>  (1) 
0

>  <chirality>  (1) 
-1

>  <cross_references>  (1) 
[]

>  <dosed_ingredient>  (1) 
False

>  <first_approval>  (1) 
nan

>  <first_in_class>  (1) 
-1

>  <helm_notation>  (1) 
nan

>  <indication_class>  (1) 
nan

>  <inorganic_flag>  (1) 
-1

>  <max_phase>  (1) 
nan

>  <molecule_hierarchy>  (1) 
{'active_chembl_id': 'CHEMBL1651179', 'molecule_chembl_id': 'CHEMBL1651179', 'parent_chembl_id': 'CHEMBL1651179'}

>  <molecule_properties>  (1) 
{'alogp': '5.49', 'aromatic_rings': 3, 'cx_logd': '2.19', 'cx_logp': '5.45', 'cx_most_apka': None, 'cx_most_bpka': '9.39', 'full_molformula': 'C28H37N3O2', 'full_mwt': '447.62', 'hba': 5, 'hba_lipinski': 5, 'hbd': 0, 'hbd_lipinski': 0, 'heavy_atoms': 33, 'molecular_species': 'BASE', 'mw_freebase': '447.62', 'mw_monoisotopic': '447.2886', 'np_likeness_score': '-1.25', 'num_lipinski_ro5_violations': 1, 'num_ro5_violations': 1, 'psa': '37.83', 'qed_weighted': '0.39', 'ro3_pass': 'N', 'rtb': 11}

>  <molecule_synonyms>  (1) 
[]

>  <molecule_type>  (1) 
Small molecule

>  <natural_product>  (1) 
0

>  <oral>  (1) 
False

>  <parenteral>  (1) 
False

>  <polymer_flag>  (1) 
0

>  <pref_name>  (1) 
nan

>  <prodrug>  (1) 
-1

>  <structure_type>  (1) 
MOL

>  <therapeutic_flag>  (1) 
False

>  <topical>  (1) 
False

>  <usan_stem>  (1) 
nan

>  <usan_stem_definition>  (1) 
nan

>  <usan_substem>  (1) 
nan

>  <usan_year>  (1) 
nan

>  <withdrawn_flag>  (1) 
False

>  <smiles>  (1) 
CCN(CC)CCOc1cc(-c2ccc(OCCN3CCCCC3)cc2)nc2ccccc12

>  <cluster>  (1) 
2

$$$$
CHEMBL1651180
     RDKit          2D

 28 30  0  0  0  0  0  0  0  0999 V2000
   -7.5000  -10.3923    0.0000 C   0  0  0  0  0  0  0  0  0  0  0  0
   -6.0000  -10.3923    0.0000 C   0  0  0  0  0  0  0  0  0  0  0  0
   -5.2500   -9.0933    0.0000 C   0  0  0  0  0  0  0  0  0  0  0  0
   -3.7500   -9.0933    0.0000 O   0  0  0  0  0  0  0  0  0  0  0  0
   -3.0000   -7.7942    0.0000 C   0  0  0  0  0  0  0  0  0  0  0  0
   -3.7500   -6.4952    0.0000 C   0  0  0  0  0  0  0  0  0  0  0  0
   -3.0000   -5.1962    0.0000 C   0  0  0  0  0  0  0  0  0  0  0  0
   -1.5000   -5.1962    0.0000 C   0  0  0  0  0  0  0  0  0  0  0  0
   -0.7500   -3.8971    0.0000 C   0  0  0  0  0  0  0  0  0  0  0  0
    0.7500   -3.8971    0.0000 C   0  0  0  0  0  0  0  0  0  0  0  0
    1.5000   -2.5981    0.0000 C   0  0  0  0  0  0  0  0  0  0  0  0
    3.0000   -2.5981    0.0000 O   0  0  0  0  0  0  0  0  0  0  0  0
    3.7500   -3.8971    0.0000 C   0  0  0  0  0  0  0  0  0  0  0  0
    5.2500   -3.8971    0.0000 C   0  0  0  0  0  0  0  0  0  0  0  0
    6.0000   -5.1962    0.0000 N   0  0  0  0  0  0  0  0  0  0  0  0
    7.5000   -5.1962    0.0000 C   0  0  0  0  0  0  0  0  0  0  0  0
    8.2500   -6.4952    0.0000 C   0  0  0  0  0  0  0  0  0  0  0  0
    5.2500   -6.4952    0.0000 C   0  0  0  0  0  0  0  0  0  0  0  0
    6.0000   -7.7942    0.0000 C   0  0  0  0  0  0  0  0  0  0  0  0
    0.7500   -1.2990    0.0000 C   0  0  0  0  0  0  0  0  0  0  0  0
    1.5000    0.0000    0.0000 C   0  0  0  0  0  0  0  0  0  0  0  0
    0.7500    1.2990    0.0000 C   0  0  0  0  0  0  0  0  0  0  0  0
   -0.7500    1.2990    0.0000 C   0  0  0  0  0  0  0  0  0  0  0  0
   -1.5000    0.0000    0.0000 C   0  0  0  0  0  0  0  0  0  0  0  0
   -0.7500   -1.2990    0.0000 C   0  0  0  0  0  0  0  0  0  0  0  0
   -1.5000   -2.5981    0.0000 N   0  0  0  0  0  0  0  0  0  0  0  0
   -0.7500   -6.4952    0.0000 C   0  0  0  0  0  0  0  0  0  0  0  0
   -1.5000   -7.7942    0.0000 C   0  0  0  0  0  0  0  0  0  0  0  0
  1  2  1  0
  2  3  1  0
  3  4  1  0
  4  5  1  0
  5  6  2  0
  6  7  1  0
  7  8  2  0
  8  9  1  0
  9 10  2  0
 10 11  1  0
 11 12  1  0
 12 13  1  0
 13 14  1  0
 14 15  1  0
 15 16  1  0
 16 17  1  0
 15 18  1  0
 18 19  1  0
 11 20  2  0
 20 21  1  0
 21 22  2  0
 22 23  1  0
 23 24  2  0
 24 25  1  0
 25 26  2  0
  8 27  1  0
 27 28  2  0
 28  5  1  0
 26  9  1  0
 25 20  1  0
M  END
>  <Unnamed: 0>  (2) 
41

>  <atc_classifications>  (2) 
[]

>  <availability_type>  (2) 
-1

>  <biotherapeutic>  (2) 
nan

>  <black_box_warning>  (2) 
0

>  <chebi_par_id>  (2) 
nan

>  <chemical_probe>  (2) 
0

>  <chirality>  (2) 
-1

>  <cross_references>  (2) 
[]

>  <dosed_ingredient>  (2) 
False

>  <first_approval>  (2) 
nan

>  <first_in_class>  (2) 
-1

>  <helm_notation>  (2) 
nan

>  <indication_class>  (2) 
nan

>  <inorganic_flag>  (2) 
-1

>  <max_phase>  (2) 
nan

>  <molecule_hierarchy>  (2) 
{'active_chembl_id': 'CHEMBL1651180', 'molecule_chembl_id': 'CHEMBL1651180', 'parent_chembl_id': 'CHEMBL1651180'}

>  <molecule_properties>  (2) 
{'alogp': '5.41', 'aromatic_rings': 3, 'cx_logd': '3.59', 'cx_logp': '5.46', 'cx_most_apka': None, 'cx_most_bpka': '9.27', 'full_molformula': 'C24H30N2O2', 'full_mwt': '378.52', 'hba': 4, 'hba_lipinski': 4, 'hbd': 0, 'hbd_lipinski': 0, 'heavy_atoms': 28, 'molecular_species': 'BASE', 'mw_freebase': '378.52', 'mw_monoisotopic': '378.2307', 'np_likeness_score': '-1.11', 'num_lipinski_ro5_violations': 1, 'num_ro5_violations': 1, 'psa': '34.59', 'qed_weighted': '0.47', 'ro3_pass': 'N', 'rtb': 10}

>  <molecule_synonyms>  (2) 
[]

>  <molecule_type>  (2) 
Small molecule

>  <natural_product>  (2) 
0

>  <oral>  (2) 
False

>  <parenteral>  (2) 
False

>  <polymer_flag>  (2) 
0

>  <pref_name>  (2) 
nan

>  <prodrug>  (2) 
-1

>  <structure_type>  (2) 
MOL

>  <therapeutic_flag>  (2) 
False

>  <topical>  (2) 
False

>  <usan_stem>  (2) 
nan

>  <usan_stem_definition>  (2) 
nan

>  <usan_substem>  (2) 
nan

>  <usan_year>  (2) 
nan

>  <withdrawn_flag>  (2) 
False

>  <smiles>  (2) 
CCCOc1ccc(-c2cc(OCCN(CC)CC)c3ccccc3n2)cc1

>  <cluster>  (2) 
2

$$$$
CHEMBL1651181
     RDKit          2D

 29 32  0  0  0  0  0  0  0  0999 V2000
   -7.5000  -10.3923    0.0000 C   0  0  0  0  0  0  0  0  0  0  0  0
   -6.0000  -10.3923    0.0000 C   0  0  0  0  0  0  0  0  0  0  0  0
   -5.2500   -9.0933    0.0000 C   0  0  0  0  0  0  0  0  0  0  0  0
   -3.7500   -9.0933    0.0000 O   0  0  0  0  0  0  0  0  0  0  0  0
   -3.0000   -7.7942    0.0000 C   0  0  0  0  0  0  0  0  0  0  0  0
   -3.7500   -6.4952    0.0000 C   0  0  0  0  0  0  0  0  0  0  0  0
   -3.0000   -5.1962    0.0000 C   0  0  0  0  0  0  0  0  0  0  0  0
   -1.5000   -5.1962    0.0000 C   0  0  0  0  0  0  0  0  0  0  0  0
   -0.7500   -3.8971    0.0000 C   0  0  0  0  0  0  0  0  0  0  0  0
    0.7500   -3.8971    0.0000 C   0  0  0  0  0  0  0  0  0  0  0  0
    1.5000   -2.5981    0.0000 C   0  0  0  0  0  0  0  0  0  0  0  0
    3.0000   -2.5981    0.0000 O   0  0  0  0  0  0  0  0  0  0  0  0
    3.7500   -3.8971    0.0000 C   0  0  0  0  0  0  0  0  0  0  0  0
    5.2500   -3.8971    0.0000 C   0  0  0  0  0  0  0  0  0  0  0  0
    6.0000   -5.1962    0.0000 N   0  0  0  0  0  0  0  0  0  0  0  0
    5.2500   -6.4952    0.0000 C   0  0  0  0  0  0  0  0  0  0  0  0
    6.0000   -7.7942    0.0000 C   0  0  0  0  0  0  0  0  0  0  0  0
    7.5000   -7.7942    0.0000 C   0  0  0  0  0  0  0  0  0  0  0  0
    8.2500   -6.4952    0.0000 C   0  0  0  0  0  0  0  0  0  0  0  0
    7.5000   -5.1962    0.0000 C   0  0  0  0  0  0  0  0  0  0  0  0
    0.7500   -1.2990    0.0000 C   0  0  0  0  0  0  0  0  0  0  0  0
    1.5000    0.0000    0.0000 C   0  0  0  0  0  0  0  0  0  0  0  0
    0.7500    1.2990    0.0000 C   0  0  0  0  0  0  0  0  0  0  0  0
   -0.7500    1.2990    0.0000 C   0  0  0  0  0  0  0  0  0  0  0  0
   -1.5000    0.0000    0.0000 C   0  0  0  0  0  0  0  0  0  0  0  0
   -0.7500   -1.2990    0.0000 C   0  0  0  0  0  0  0  0  0  0  0  0
   -1.5000   -2.5981    0.0000 N   0  0  0  0  0  0  0  0  0  0  0  0
   -0.7500   -6.4952    0.0000 C   0  0  0  0  0  0  0  0  0  0  0  0
   -1.5000   -7.7942    0.0000 C   0  0  0  0  0  0  0  0  0  0  0  0
  1  2  1  0
  2  3  1  0
  3  4  1  0
  4  5  1  0
  5  6  2  0
  6  7  1  0
  7  8  2  0
  8  9  1  0
  9 10  2  0
 10 11  1  0
 11 12  1  0
 12 13  1  0
 13 14  1  0
 14 15  1  0
 15 16  1  0
 16 17  1  0
 17 18  1  0
 18 19  1  0
 19 20  1  0
 11 21  2  0
 21 22  1  0
 22 23  2  0
 23 24  1  0
 24 25  2  0
 25 26  1  0
 26 27  2  0
  8 28  1  0
 28 29  2  0
 29  5  1  0
 27  9  1  0
 20 15  1  0
 26 21  1  0
M  END
>  <Unnamed: 0>  (3) 
42

>  <atc_classifications>  (3) 
[]

>  <availability_type>  (3) 
-1

>  <biotherapeutic>  (3) 
nan

>  <black_box_warning>  (3) 
0

>  <chebi_par_id>  (3) 
nan

>  <chemical_probe>  (3) 
0

>  <chirality>  (3) 
-1

>  <cross_references>  (3) 
[]

>  <dosed_ingredient>  (3) 
False

>  <first_approval>  (3) 
nan

>  <first_in_class>  (3) 
-1

>  <helm_notation>  (3) 
nan

>  <indication_class>  (3) 
nan

>  <inorganic_flag>  (3) 
-1

>  <max_phase>  (3) 
nan

>  <molecule_hierarchy>  (3) 
{'active_chembl_id': 'CHEMBL1651181', 'molecule_chembl_id': 'CHEMBL1651181', 'parent_chembl_id': 'CHEMBL1651181'}

>  <molecule_properties>  (3) 
{'alogp': '5.56', 'aromatic_rings': 3, 'cx_logd': '3.94', 'cx_logp': '5.60', 'cx_most_apka': None, 'cx_most_bpka': '9.05', 'full_molformula': 'C25H30N2O2', 'full_mwt': '390.53', 'hba': 4, 'hba_lipinski': 4, 'hbd': 0, 'hbd_lipinski': 0, 'heavy_atoms': 29, 'molecular_species': 'BASE', 'mw_freebase': '390.53', 'mw_monoisotopic': '390.2307', 'np_likeness_score': '-1.08', 'num_lipinski_ro5_violations': 1, 'num_ro5_violations': 1, 'psa': '34.59', 'qed_weighted': '0.50', 'ro3_pass': 'N', 'rtb': 8}

>  <molecule_synonyms>  (3) 
[]

>  <molecule_type>  (3) 
Small molecule

>  <natural_product>  (3) 
0

>  <oral>  (3) 
False

>  <parenteral>  (3) 
False

>  <polymer_flag>  (3) 
0

>  <pref_name>  (3) 
nan

>  <prodrug>  (3) 
-1

>  <structure_type>  (3) 
MOL

>  <therapeutic_flag>  (3) 
False

>  <topical>  (3) 
False

>  <usan_stem>  (3) 
nan

>  <usan_stem_definition>  (3) 
nan

>  <usan_substem>  (3) 
nan

>  <usan_year>  (3) 
nan

>  <withdrawn_flag>  (3) 
False

>  <smiles>  (3) 
CCCOc1ccc(-c2cc(OCCN3CCCCC3)c3ccccc3n2)cc1

>  <cluster>  (3) 
2

$$$$
CHEMBL1814795
     RDKit          2D

 22 24  0  0  0  0  0  0  0  0999 V2000
   -7.5000  -10.3923    0.0000 C   0  0  0  0  0  0  0  0  0  0  0  0
   -6.0000  -10.3923    0.0000 C   0  0  0  0  0  0  0  0  0  0  0  0
   -5.2500   -9.0933    0.0000 C   0  0  0  0  0  0  0  0  0  0  0  0
   -3.7500   -9.0933    0.0000 O   0  0  0  0  0  0  0  0  0  0  0  0
   -3.0000   -7.7942    0.0000 C   0  0  0  0  0  0  0  0  0  0  0  0
   -3.7500   -6.4952    0.0000 C   0  0  0  0  0  0  0  0  0  0  0  0
   -3.0000   -5.1962    0.0000 C   0  0  0  0  0  0  0  0  0  0  0  0
   -1.5000   -5.1962    0.0000 C   0  0  0  0  0  0  0  0  0  0  0  0
   -0.7500   -3.8971    0.0000 C   0  0  0  0  0  0  0  0  0  0  0  0
    0.7500   -3.8971    0.0000 C   0  0  0  0  0  0  0  0  0  0  0  0
    1.5000   -2.5981    0.0000 C   0  0  0  0  0  0  0  0  0  0  0  0
    3.0000   -2.5981    0.0000 O   0  0  0  0  0  0  0  0  0  0  0  0
    3.7500   -3.8971    0.0000 C   0  0  0  0  0  0  0  0  0  0  0  0
    0.7500   -1.2990    0.0000 C   0  0  0  0  0  0  0  0  0  0  0  0
    1.5000    0.0000    0.0000 C   0  0  0  0  0  0  0  0  0  0  0  0
    0.7500    1.2990    0.0000 C   0  0  0  0  0  0  0  0  0  0  0  0
   -0.7500    1.2990    0.0000 C   0  0  0  0  0  0  0  0  0  0  0  0
   -1.5000    0.0000    0.0000 C   0  0  0  0  0  0  0  0  0  0  0  0
   -0.7500   -1.2990    0.0000 C   0  0  0  0  0  0  0  0  0  0  0  0
   -1.5000   -2.5981    0.0000 N   0  0  0  0  0  0  0  0  0  0  0  0
   -0.7500   -6.4952    0.0000 C   0  0  0  0  0  0  0  0  0  0  0  0
   -1.5000   -7.7942    0.0000 C   0  0  0  0  0  0  0  0  0  0  0  0
  1  2  1  0
  2  3  1  0
  3  4  1  0
  4  5  1  0
  5  6  2  0
  6  7  1  0
  7  8  2  0
  8  9  1  0
  9 10  2  0
 10 11  1  0
 11 12  1  0
 12 13  1  0
 11 14  2  0
 14 15  1  0
 15 16  2  0
 16 17  1  0
 17 18  2  0
 18 19  1  0
 19 20  2  0
  8 21  1  0
 21 22  2  0
 22  5  1  0
 20  9  1  0
 19 14  1  0
M  END
>  <Unnamed: 0>  (4) 
48

>  <atc_classifications>  (4) 
[]

>  <availability_type>  (4) 
-1

>  <biotherapeutic>  (4) 
nan

>  <black_box_warning>  (4) 
0

>  <chebi_par_id>  (4) 
nan

>  <chemical_probe>  (4) 
0

>  <chirality>  (4) 
-1

>  <cross_references>  (4) 
[]

>  <dosed_ingredient>  (4) 
False

>  <first_approval>  (4) 
nan

>  <first_in_class>  (4) 
-1

>  <helm_notation>  (4) 
nan

>  <indication_class>  (4) 
nan

>  <inorganic_flag>  (4) 
-1

>  <max_phase>  (4) 
nan

>  <molecule_hierarchy>  (4) 
{'active_chembl_id': 'CHEMBL1814795', 'molecule_chembl_id': 'CHEMBL1814795', 'parent_chembl_id': 'CHEMBL1814795'}

>  <molecule_properties>  (4) 
{'alogp': '4.70', 'aromatic_rings': 3, 'cx_logd': '4.72', 'cx_logp': '4.73', 'cx_most_apka': None, 'cx_most_bpka': '5.38', 'full_molformula': 'C19H19NO2', 'full_mwt': '293.37', 'hba': 3, 'hba_lipinski': 3, 'hbd': 0, 'hbd_lipinski': 0, 'heavy_atoms': 22, 'molecular_species': 'NEUTRAL', 'mw_freebase': '293.37', 'mw_monoisotopic': '293.1416', 'np_likeness_score': '-0.77', 'num_lipinski_ro5_violations': 0, 'num_ro5_violations': 0, 'psa': '31.35', 'qed_weighted': '0.68', 'ro3_pass': 'N', 'rtb': 5}

>  <molecule_synonyms>  (4) 
[]

>  <molecule_type>  (4) 
Small molecule

>  <natural_product>  (4) 
0

>  <oral>  (4) 
False

>  <parenteral>  (4) 
False

>  <polymer_flag>  (4) 
0

>  <pref_name>  (4) 
nan

>  <prodrug>  (4) 
-1

>  <structure_type>  (4) 
MOL

>  <therapeutic_flag>  (4) 
False

>  <topical>  (4) 
False

>  <usan_stem>  (4) 
nan

>  <usan_stem_definition>  (4) 
nan

>  <usan_substem>  (4) 
nan

>  <usan_year>  (4) 
nan

>  <withdrawn_flag>  (4) 
False

>  <smiles>  (4) 
CCCOc1ccc(-c2cc(OC)c3ccccc3n2)cc1

>  <cluster>  (4) 
2

$$$$
CHEMBL2385679
     RDKit          2D

 29 33  0  0  0  0  0  0  0  0999 V2000
   -7.5000  -10.3923    0.0000 C   0  0  0  0  0  0  0  0  0  0  0  0
   -6.0000  -10.3923    0.0000 C   0  0  0  0  0  0  0  0  0  0  0  0
   -5.2500   -9.0933    0.0000 C   0  0  0  0  0  0  0  0  0  0  0  0
   -3.7500   -9.0933    0.0000 O   0  0  0  0  0  0  0  0  0  0  0  0
   -3.0000   -7.7942    0.0000 C   0  0  0  0  0  0  0  0  0  0  0  0
   -3.7500   -6.4952    0.0000 C   0  0  0  0  0  0  0  0  0  0  0  0
   -3.0000   -5.1962    0.0000 C   0  0  0  0  0  0  0  0  0  0  0  0
   -1.5000   -5.1962    0.0000 C   0  0  0  0  0  0  0  0  0  0  0  0
   -0.7500   -3.8971    0.0000 C   0  0  0  0  0  0  0  0  0  0  0  0
    0.7500   -3.8971    0.0000 C   0  0  0  0  0  0  0  0  0  0  0  0
    1.5000   -2.5981    0.0000 C   0  0  0  0  0  0  0  0  0  0  0  0
    3.0000   -2.5981    0.0000 O   0  0  0  0  0  0  0  0  0  0  0  0
    4.5187   -5.1962    0.0000 C   0  0  0  0  0  0  0  0  0  0  0  0
    4.4813   -5.1962    0.0000 C   0  0  0  0  0  0  0  0  0  0  0  0
    6.0000   -5.1962    0.0000 N   0  0  0  0  0  0  0  0  0  0  0  0
    5.2500   -6.4952    0.0000 C   0  0  0  0  0  0  0  0  0  0  0  0
    3.7500   -6.4952    0.0000 C   0  0  0  0  0  0  0  0  0  0  0  0
    3.0000   -5.1962    0.0000 C   0  0  0  0  0  0  0  0  0  0  0  0
    3.8218   -5.1457    0.0000 C   0  0  0  0  0  0  0  0  0  0  0  0
    5.1782   -5.1457    0.0000 C   0  0  0  0  0  0  0  0  0  0  0  0
    0.7500   -1.2990    0.0000 C   0  0  0  0  0  0  0  0  0  0  0  0
    1.5000    0.0000    0.0000 C   0  0  0  0  0  0  0  0  0  0  0  0
    0.7500    1.2990    0.0000 C   0  0  0  0  0  0  0  0  0  0  0  0
   -0.7500    1.2990    0.0000 C   0  0  0  0  0  0  0  0  0  0  0  0
   -1.5000    0.0000    0.0000 C   0  0  0  0  0  0  0  0  0  0  0  0
   -0.7500   -1.2990    0.0000 C   0  0  0  0  0  0  0  0  0  0  0  0
   -1.5000   -2.5981    0.0000 N   0  0  0  0  0  0  0  0  0  0  0  0
   -0.7500   -6.4952    0.0000 C   0  0  0  0  0  0  0  0  0  0  0  0
   -1.5000   -7.7942    0.0000 C   0  0  0  0  0  0  0  0  0  0  0  0
  1  2  1  0
  2  3  1  0
  3  4  1  0
  4  5  1  0
  5  6  2  0
  6  7  1  0
  7  8  2  0
  8  9  1  0
  9 10  2  0
 10 11  1  0
 11 12  1  0
 12 13  1  0
 13 14  1  0
 14 15  1  0
 15 16  1  0
 16 17  1  0
 17 18  1  0
 18 19  1  0
 19 20  1  0
 11 21  2  0
 21 22  1  0
 22 23  2  0
 23 24  1  0
 24 25  2  0
 25 26  1  0
 26 27  2  0
  8 28  1  0
 28 29  2  0
 29  5  1  0
 27  9  1  0
 18 13  1  0
 26 21  1  0
 20 15  1  0
M  END
>  <Unnamed: 0>  (5) 
50

>  <atc_classifications>  (5) 
[]

>  <availability_type>  (5) 
-1

>  <biotherapeutic>  (5) 
nan

>  <black_box_warning>  (5) 
0

>  <chebi_par_id>  (5) 
nan

>  <chemical_probe>  (5) 
0

>  <chirality>  (5) 
-1

>  <cross_references>  (5) 
[]

>  <dosed_ingredient>  (5) 
False

>  <first_approval>  (5) 
nan

>  <first_in_class>  (5) 
-1

>  <helm_notation>  (5) 
nan

>  <indication_class>  (5) 
nan

>  <inorganic_flag>  (5) 
-1

>  <max_phase>  (5) 
nan

>  <molecule_hierarchy>  (5) 
{'active_chembl_id': 'CHEMBL2385679', 'molecule_chembl_id': 'CHEMBL2385679', 'parent_chembl_id': 'CHEMBL2385679'}

>  <molecule_properties>  (5) 
{'alogp': '5.16', 'aromatic_rings': 3, 'cx_logd': '3.78', 'cx_logp': '5.10', 'cx_most_apka': None, 'cx_most_bpka': '8.70', 'full_molformula': 'C25H28N2O2', 'full_mwt': '388.51', 'hba': 4, 'hba_lipinski': 4, 'hbd': 0, 'hbd_lipinski': 0, 'heavy_atoms': 29, 'molecular_species': 'BASE', 'mw_freebase': '388.51', 'mw_monoisotopic': '388.2151', 'np_likeness_score': '-0.27', 'num_lipinski_ro5_violations': 1, 'num_ro5_violations': 1, 'psa': '34.59', 'qed_weighted': '0.58', 'ro3_pass': 'N', 'rtb': 6}

>  <molecule_synonyms>  (5) 
[]

>  <molecule_type>  (5) 
Small molecule

>  <natural_product>  (5) 
0

>  <oral>  (5) 
False

>  <parenteral>  (5) 
False

>  <polymer_flag>  (5) 
0

>  <pref_name>  (5) 
nan

>  <prodrug>  (5) 
-1

>  <structure_type>  (5) 
MOL

>  <therapeutic_flag>  (5) 
False

>  <topical>  (5) 
False

>  <usan_stem>  (5) 
nan

>  <usan_stem_definition>  (5) 
nan

>  <usan_substem>  (5) 
nan

>  <usan_year>  (5) 
nan

>  <withdrawn_flag>  (5) 
False

>  <smiles>  (5) 
CCCOc1ccc(-c2cc(OC3CN4CCC3CC4)c3ccccc3n2)cc1

>  <cluster>  (5) 
2

$$$$
CHEMBL4160603
     RDKit          2D

 34 37  0  0  0  0  0  0  0  0999 V2000
    3.0000  -10.3923    0.0000 C   0  0  0  0  0  0  0  0  0  0  0  0
    3.7500   -9.0933    0.0000 C   0  0  0  0  0  0  0  0  0  0  0  0
    3.0000   -7.7942    0.0000 C   0  0  0  0  0  0  0  0  0  0  0  0
    3.7500   -6.4952    0.0000 O   0  0  0  0  0  0  0  0  0  0  0  0
    3.0000   -5.1962    0.0000 C   0  0  0  0  0  0  0  0  0  0  0  0
    1.5000   -5.1962    0.0000 C   0  0  0  0  0  0  0  0  0  0  0  0
    0.7500   -3.8971    0.0000 C   0  0  0  0  0  0  0  0  0  0  0  0
    1.5000   -2.5981    0.0000 C   0  0  0  0  0  0  0  0  0  0  0  0
    0.7500   -1.2990    0.0000 C   0  0  0  0  0  0  0  0  0  0  0  0
    1.5000    0.0000    0.0000 C   0  0  0  0  0  0  0  0  0  0  0  0
    0.7500    1.2990    0.0000 C   0  0  0  0  0  0  0  0  0  0  0  0
    1.5000    2.5981    0.0000 O   0  0  0  0  0  0  0  0  0  0  0  0
    3.0000    2.5981    0.0000 C   0  0  0  0  0  0  0  0  0  0  0  0
    3.7500    3.8971    0.0000 C   0  0  0  0  0  0  0  0  0  0  0  0
    5.2500    3.8971    0.0000 N   0  0  0  0  0  0  0  0  0  0  0  0
    5.9008    5.2486    0.0000 C   0  0  0  0  0  0  0  0  0  0  0  0
    7.3632    5.5823    0.0000 C   0  0  0  0  0  0  0  0  0  0  0  0
    8.5360    4.6471    0.0000 C   0  0  0  0  0  0  0  0  0  0  0  0
    8.5360    3.1471    0.0000 C   0  0  0  0  0  0  0  0  0  0  0  0
    7.3632    2.2119    0.0000 C   0  0  0  0  0  0  0  0  0  0  0  0
    5.9008    2.5457    0.0000 C   0  0  0  0  0  0  0  0  0  0  0  0
   -0.7500    1.2990    0.0000 C   0  0  0  0  0  0  0  0  0  0  0  0
   -1.5000    2.5981    0.0000 C   0  0  0  0  0  0  0  0  0  0  0  0
   -0.7500    3.8971    0.0000 O   0  0  0  0  0  0  0  0  0  0  0  0
   -1.5000    5.1962    0.0000 C   0  0  0  0  0  0  0  0  0  0  0  0
   -3.0000    2.5981    0.0000 C   0  0  0  0  0  0  0  0  0  0  0  0
   -3.7500    1.2990    0.0000 C   0  0  0  0  0  0  0  0  0  0  0  0
   -5.2500    1.2990    0.0000 O   0  0  0  0  0  0  0  0  0  0  0  0
   -6.0000    2.5981    0.0000 C   0  0  0  0  0  0  0  0  0  0  0  0
   -3.0000    0.0000    0.0000 C   0  0  0  0  0  0  0  0  0  0  0  0
   -1.5000    0.0000    0.0000 C   0  0  0  0  0  0  0  0  0  0  0  0
   -0.7500   -1.2990    0.0000 N   0  0  0  0  0  0  0  0  0  0  0  0
    3.0000   -2.5981    0.0000 C   0  0  0  0  0  0  0  0  0  0  0  0
    3.7500   -3.8971    0.0000 C   0  0  0  0  0  0  0  0  0  0  0  0
  1  2  1  0
  2  3  1  0
  3  4  1  0
  4  5  1  0
  5  6  2  0
  6  7  1  0
  7  8  2  0
  8  9  1  0
  9 10  2  0
 10 11  1  0
 11 12  1  0
 12 13  1  0
 13 14  1  0
 14 15  1  0
 15 16  1  0
 16 17  1  0
 17 18  1  0
 18 19  1  0
 19 20  1  0
 20 21  1  0
 11 22  2  0
 22 23  1  0
 23 24  1  0
 24 25  1  0
 23 26  2  0
 26 27  1  0
 27 28  1  0
 28 29  1  0
 27 30  2  0
 30 31  1  0
 31 32  2  0
  8 33  1  0
 33 34  2  0
 34  5  1  0
 32  9  1  0
 21 15  1  0
 31 22  1  0
M  END
>  <Unnamed: 0>  (6) 
91

>  <atc_classifications>  (6) 
[]

>  <availability_type>  (6) 
-1

>  <biotherapeutic>  (6) 
nan

>  <black_box_warning>  (6) 
0

>  <chebi_par_id>  (6) 
nan

>  <chemical_probe>  (6) 
0

>  <chirality>  (6) 
-1

>  <cross_references>  (6) 
[]

>  <dosed_ingredient>  (6) 
False

>  <first_approval>  (6) 
nan

>  <first_in_class>  (6) 
-1

>  <helm_notation>  (6) 
nan

>  <indication_class>  (6) 
nan

>  <inorganic_flag>  (6) 
-1

>  <max_phase>  (6) 
nan

>  <molecule_hierarchy>  (6) 
{'active_chembl_id': 'CHEMBL4160603', 'molecule_chembl_id': 'CHEMBL4160603', 'parent_chembl_id': 'CHEMBL4160603'}

>  <molecule_properties>  (6) 
{'alogp': '5.96', 'aromatic_rings': 3, 'cx_logd': '3.66', 'cx_logp': '5.73', 'cx_most_apka': None, 'cx_most_bpka': '9.45', 'full_molformula': 'C28H36N2O4', 'full_mwt': '464.61', 'hba': 6, 'hba_lipinski': 6, 'hbd': 0, 'hbd_lipinski': 0, 'heavy_atoms': 34, 'molecular_species': 'BASE', 'mw_freebase': '464.61', 'mw_monoisotopic': '464.2675', 'np_likeness_score': '-0.73', 'num_lipinski_ro5_violations': 1, 'num_ro5_violations': 1, 'psa': '53.05', 'qed_weighted': '0.37', 'ro3_pass': 'N', 'rtb': 10}

>  <molecule_synonyms>  (6) 
[]

>  <molecule_type>  (6) 
Small molecule

>  <natural_product>  (6) 
0

>  <oral>  (6) 
False

>  <parenteral>  (6) 
False

>  <polymer_flag>  (6) 
0

>  <pref_name>  (6) 
nan

>  <prodrug>  (6) 
-1

>  <structure_type>  (6) 
MOL

>  <therapeutic_flag>  (6) 
False

>  <topical>  (6) 
False

>  <usan_stem>  (6) 
nan

>  <usan_stem_definition>  (6) 
nan

>  <usan_substem>  (6) 
nan

>  <usan_year>  (6) 
nan

>  <withdrawn_flag>  (6) 
False

>  <smiles>  (6) 
CCCOc1ccc(-c2cc(OCCN3CCCCCC3)c3c(OC)cc(OC)cc3n2)cc1

>  <cluster>  (6) 
2

$$$$
CHEMBL4161319
     RDKit          2D

 31 34  0  0  0  0  0  0  0  0999 V2000
   -7.5000  -10.3923    0.0000 C   0  0  0  0  0  0  0  0  0  0  0  0
   -6.0000  -10.3923    0.0000 C   0  0  0  0  0  0  0  0  0  0  0  0
   -5.2500   -9.0933    0.0000 C   0  0  0  0  0  0  0  0  0  0  0  0
   -3.7500   -9.0933    0.0000 O   0  0  0  0  0  0  0  0  0  0  0  0
   -3.0000   -7.7942    0.0000 C   0  0  0  0  0  0  0  0  0  0  0  0
   -3.7500   -6.4952    0.0000 C   0  0  0  0  0  0  0  0  0  0  0  0
   -3.0000   -5.1962    0.0000 C   0  0  0  0  0  0  0  0  0  0  0  0
   -1.5000   -5.1962    0.0000 C   0  0  0  0  0  0  0  0  0  0  0  0
   -0.7500   -3.8971    0.0000 C   0  0  0  0  0  0  0  0  0  0  0  0
    0.7500   -3.8971    0.0000 C   0  0  0  0  0  0  0  0  0  0  0  0
    1.5000   -2.5981    0.0000 C   0  0  0  0  0  0  0  0  0  0  0  0
    3.0000   -2.5981    0.0000 O   0  0  0  0  0  0  0  0  0  0  0  0
    3.7500   -3.8971    0.0000 C   0  0  0  0  0  0  0  0  0  0  0  0
    5.2500   -3.8971    0.0000 C   0  0  0  0  0  0  0  0  0  0  0  0
    6.0000   -5.1962    0.0000 N   0  0  0  0  0  0  0  0  0  0  0  0
    5.2500   -6.4952    0.0000 C   0  0  0  0  0  0  0  0  0  0  0  0
    6.0000   -7.7942    0.0000 C   0  0  0  0  0  0  0  0  0  0  0  0
    7.5000   -7.7942    0.0000 C   0  0  0  0  0  0  0  0  0  0  0  0
    8.2500   -6.4952    0.0000 C   0  0  0  0  0  0  0  0  0  0  0  0
    7.5000   -5.1962    0.0000 C   0  0  0  0  0  0  0  0  0  0  0  0
    0.7500   -1.2990    0.0000 C   0  0  0  0  0  0  0  0  0  0  0  0
    1.5000    0.0000    0.0000 C   0  0  0  0  0  0  0  0  0  0  0  0
    3.0000    0.0000    0.0000 O   0  0  0  0  0  0  0  0  0  0  0  0
    3.7500    1.2990    0.0000 C   0  0  0  0  0  0  0  0  0  0  0  0
    0.7500    1.2990    0.0000 C   0  0  0  0  0  0  0  0  0  0  0  0
   -0.7500    1.2990    0.0000 C   0  0  0  0  0  0  0  0  0  0  0  0
   -1.5000    0.0000    0.0000 C   0  0  0  0  0  0  0  0  0  0  0  0
   -0.7500   -1.2990    0.0000 C   0  0  0  0  0  0  0  0  0  0  0  0
   -1.5000   -2.5981    0.0000 N   0  0  0  0  0  0  0  0  0  0  0  0
   -0.7500   -6.4952    0.0000 C   0  0  0  0  0  0  0  0  0  0  0  0
   -1.5000   -7.7942    0.0000 C   0  0  0  0  0  0  0  0  0  0  0  0
  1  2  1  0
  2  3  1  0
  3  4  1  0
  4  5  1  0
  5  6  2  0
  6  7  1  0
  7  8  2  0
  8  9  1  0
  9 10  2  0
 10 11  1  0
 11 12  1  0
 12 13  1  0
 13 14  1  0
 14 15  1  0
 15 16  1  0
 16 17  1  0
 17 18  1  0
 18 19  1  0
 19 20  1  0
 11 21  2  0
 21 22  1  0
 22 23  1  0
 23 24  1  0
 22 25  2  0
 25 26  1  0
 26 27  2  0
 27 28  1  0
 28 29  2  0
  8 30  1  0
 30 31  2  0
 31  5  1  0
 29  9  1  0
 20 15  1  0
 28 21  1  0
M  END
>  <Unnamed: 0>  (7) 
92

>  <atc_classifications>  (7) 
[]

>  <availability_type>  (7) 
-1

>  <biotherapeutic>  (7) 
nan

>  <black_box_warning>  (7) 
0

>  <chebi_par_id>  (7) 
nan

>  <chemical_probe>  (7) 
0

>  <chirality>  (7) 
-1

>  <cross_references>  (7) 
[]

>  <dosed_ingredient>  (7) 
False

>  <first_approval>  (7) 
nan

>  <first_in_class>  (7) 
-1

>  <helm_notation>  (7) 
nan

>  <indication_class>  (7) 
nan

>  <inorganic_flag>  (7) 
-1

>  <max_phase>  (7) 
nan

>  <molecule_hierarchy>  (7) 
{'active_chembl_id': 'CHEMBL4161319', 'molecule_chembl_id': 'CHEMBL4161319', 'parent_chembl_id': 'CHEMBL4161319'}

>  <molecule_properties>  (7) 
{'alogp': '5.56', 'aromatic_rings': 3, 'cx_logd': '3.84', 'cx_logp': '5.44', 'cx_most_apka': None, 'cx_most_bpka': '8.98', 'full_molformula': 'C26H32N2O3', 'full_mwt': '420.55', 'hba': 5, 'hba_lipinski': 5, 'hbd': 0, 'hbd_lipinski': 0, 'heavy_atoms': 31, 'molecular_species': 'BASE', 'mw_freebase': '420.55', 'mw_monoisotopic': '420.2413', 'np_likeness_score': '-0.93', 'num_lipinski_ro5_violations': 1, 'num_ro5_violations': 1, 'psa': '43.82', 'qed_weighted': '0.45', 'ro3_pass': 'N', 'rtb': 9}

>  <molecule_synonyms>  (7) 
[]

>  <molecule_type>  (7) 
Small molecule

>  <natural_product>  (7) 
0

>  <oral>  (7) 
False

>  <parenteral>  (7) 
False

>  <polymer_flag>  (7) 
0

>  <pref_name>  (7) 
nan

>  <prodrug>  (7) 
-1

>  <structure_type>  (7) 
MOL

>  <therapeutic_flag>  (7) 
False

>  <topical>  (7) 
False

>  <usan_stem>  (7) 
nan

>  <usan_stem_definition>  (7) 
nan

>  <usan_substem>  (7) 
nan

>  <usan_year>  (7) 
nan

>  <withdrawn_flag>  (7) 
False

>  <smiles>  (7) 
CCCOc1ccc(-c2cc(OCCN3CCCCC3)c3c(OC)cccc3n2)cc1

>  <cluster>  (7) 
2

$$$$
CHEMBL4161465
     RDKit          2D

 32 35  0  0  0  0  0  0  0  0999 V2000
   -7.5000  -10.3923    0.0000 C   0  0  0  0  0  0  0  0  0  0  0  0
   -6.0000  -10.3923    0.0000 C   0  0  0  0  0  0  0  0  0  0  0  0
   -5.2500   -9.0933    0.0000 C   0  0  0  0  0  0  0  0  0  0  0  0
   -3.7500   -9.0933    0.0000 O   0  0  0  0  0  0  0  0  0  0  0  0
   -3.0000   -7.7942    0.0000 C   0  0  0  0  0  0  0  0  0  0  0  0
   -3.7500   -6.4952    0.0000 C   0  0  0  0  0  0  0  0  0  0  0  0
   -3.0000   -5.1962    0.0000 C   0  0  0  0  0  0  0  0  0  0  0  0
   -1.5000   -5.1962    0.0000 C   0  0  0  0  0  0  0  0  0  0  0  0
   -0.7500   -3.8971    0.0000 C   0  0  0  0  0  0  0  0  0  0  0  0
    0.7500   -3.8971    0.0000 C   0  0  0  0  0  0  0  0  0  0  0  0
    1.5000   -2.5981    0.0000 C   0  0  0  0  0  0  0  0  0  0  0  0
    3.0000   -2.5981    0.0000 O   0  0  0  0  0  0  0  0  0  0  0  0
    3.7500   -3.8971    0.0000 C   0  0  0  0  0  0  0  0  0  0  0  0
    5.2500   -3.8971    0.0000 C   0  0  0  0  0  0  0  0  0  0  0  0
    6.0000   -5.1962    0.0000 N   0  0  0  0  0  0  0  0  0  0  0  0
    7.4958   -5.0841    0.0000 C   0  0  0  0  0  0  0  0  0  0  0  0
    8.5161   -6.1836    0.0000 C   0  0  0  0  0  0  0  0  0  0  0  0
    8.2925   -7.6669    0.0000 C   0  0  0  0  0  0  0  0  0  0  0  0
    6.9935   -8.4169    0.0000 C   0  0  0  0  0  0  0  0  0  0  0  0
    5.5972   -7.8689    0.0000 C   0  0  0  0  0  0  0  0  0  0  0  0
    5.1550   -6.4355    0.0000 C   0  0  0  0  0  0  0  0  0  0  0  0
    0.7500   -1.2990    0.0000 C   0  0  0  0  0  0  0  0  0  0  0  0
    1.5000    0.0000    0.0000 C   0  0  0  0  0  0  0  0  0  0  0  0
    0.7500    1.2990    0.0000 C   0  0  0  0  0  0  0  0  0  0  0  0
   -0.7500    1.2990    0.0000 C   0  0  0  0  0  0  0  0  0  0  0  0
   -1.5000    0.0000    0.0000 C   0  0  0  0  0  0  0  0  0  0  0  0
   -3.0000    0.0000    0.0000 O   0  0  0  0  0  0  0  0  0  0  0  0
   -3.7500    1.2990    0.0000 C   0  0  0  0  0  0  0  0  0  0  0  0
   -0.7500   -1.2990    0.0000 C   0  0  0  0  0  0  0  0  0  0  0  0
   -1.5000   -2.5981    0.0000 N   0  0  0  0  0  0  0  0  0  0  0  0
   -0.7500   -6.4952    0.0000 C   0  0  0  0  0  0  0  0  0  0  0  0
   -1.5000   -7.7942    0.0000 C   0  0  0  0  0  0  0  0  0  0  0  0
  1  2  1  0
  2  3  1  0
  3  4  1  0
  4  5  1  0
  5  6  2  0
  6  7  1  0
  7  8  2  0
  8  9  1  0
  9 10  2  0
 10 11  1  0
 11 12  1  0
 12 13  1  0
 13 14  1  0
 14 15  1  0
 15 16  1  0
 16 17  1  0
 17 18  1  0
 18 19  1  0
 19 20  1  0
 20 21  1  0
 11 22  2  0
 22 23  1  0
 23 24  2  0
 24 25  1  0
 25 26  2  0
 26 27  1  0
 27 28  1  0
 26 29  1  0
 29 30  2  0
  8 31  1  0
 31 32  2  0
 32  5  1  0
 30  9  1  0
 21 15  1  0
 29 22  1  0
M  END
>  <Unnamed: 0>  (8) 
93

>  <atc_classifications>  (8) 
[]

>  <availability_type>  (8) 
-1

>  <biotherapeutic>  (8) 
nan

>  <black_box_warning>  (8) 
0

>  <chebi_par_id>  (8) 
nan

>  <chemical_probe>  (8) 
0

>  <chirality>  (8) 
-1

>  <cross_references>  (8) 
[]

>  <dosed_ingredient>  (8) 
False

>  <first_approval>  (8) 
nan

>  <first_in_class>  (8) 
-1

>  <helm_notation>  (8) 
nan

>  <indication_class>  (8) 
nan

>  <inorganic_flag>  (8) 
-1

>  <max_phase>  (8) 
nan

>  <molecule_hierarchy>  (8) 
{'active_chembl_id': 'CHEMBL4161465', 'molecule_chembl_id': 'CHEMBL4161465', 'parent_chembl_id': 'CHEMBL4161465'}

>  <molecule_properties>  (8) 
{'alogp': '5.95', 'aromatic_rings': 3, 'cx_logd': '3.77', 'cx_logp': '5.88', 'cx_most_apka': None, 'cx_most_bpka': '9.53', 'full_molformula': 'C27H34N2O3', 'full_mwt': '434.58', 'hba': 5, 'hba_lipinski': 5, 'hbd': 0, 'hbd_lipinski': 0, 'heavy_atoms': 32, 'molecular_species': 'BASE', 'mw_freebase': '434.58', 'mw_monoisotopic': '434.2569', 'np_likeness_score': '-0.97', 'num_lipinski_ro5_violations': 1, 'num_ro5_violations': 1, 'psa': '43.82', 'qed_weighted': '0.42', 'ro3_pass': 'N', 'rtb': 9}

>  <molecule_synonyms>  (8) 
[]

>  <molecule_type>  (8) 
Small molecule

>  <natural_product>  (8) 
0

>  <oral>  (8) 
False

>  <parenteral>  (8) 
False

>  <polymer_flag>  (8) 
0

>  <pref_name>  (8) 
nan

>  <prodrug>  (8) 
-1

>  <structure_type>  (8) 
MOL

>  <therapeutic_flag>  (8) 
False

>  <topical>  (8) 
False

>  <usan_stem>  (8) 
nan

>  <usan_stem_definition>  (8) 
nan

>  <usan_substem>  (8) 
nan

>  <usan_year>  (8) 
nan

>  <withdrawn_flag>  (8) 
False

>  <smiles>  (8) 
CCCOc1ccc(-c2cc(OCCN3CCCCCC3)c3cccc(OC)c3n2)cc1

>  <cluster>  (8) 
2

$$$$
CHEMBL4161736
     RDKit          2D

 31 34  0  0  0  0  0  0  0  0999 V2000
   -7.5000  -10.3923    0.0000 C   0  0  0  0  0  0  0  0  0  0  0  0
   -6.0000  -10.3923    0.0000 C   0  0  0  0  0  0  0  0  0  0  0  0
   -5.2500   -9.0933    0.0000 C   0  0  0  0  0  0  0  0  0  0  0  0
   -3.7500   -9.0933    0.0000 O   0  0  0  0  0  0  0  0  0  0  0  0
   -3.0000   -7.7942    0.0000 C   0  0  0  0  0  0  0  0  0  0  0  0
   -3.7500   -6.4952    0.0000 C   0  0  0  0  0  0  0  0  0  0  0  0
   -3.0000   -5.1962    0.0000 C   0  0  0  0  0  0  0  0  0  0  0  0
   -1.5000   -5.1962    0.0000 C   0  0  0  0  0  0  0  0  0  0  0  0
   -0.7500   -3.8971    0.0000 C   0  0  0  0  0  0  0  0  0  0  0  0
    0.7500   -3.8971    0.0000 C   0  0  0  0  0  0  0  0  0  0  0  0
    1.5000   -2.5981    0.0000 C   0  0  0  0  0  0  0  0  0  0  0  0
    3.0000   -2.5981    0.0000 O   0  0  0  0  0  0  0  0  0  0  0  0
    3.7500   -3.8971    0.0000 C   0  0  0  0  0  0  0  0  0  0  0  0
    5.2500   -3.8971    0.0000 C   0  0  0  0  0  0  0  0  0  0  0  0
    6.0000   -5.1962    0.0000 N   0  0  0  0  0  0  0  0  0  0  0  0
    5.2500   -6.4952    0.0000 C   0  0  0  0  0  0  0  0  0  0  0  0
    6.0000   -7.7942    0.0000 C   0  0  0  0  0  0  0  0  0  0  0  0
    7.5000   -7.7942    0.0000 C   0  0  0  0  0  0  0  0  0  0  0  0
    8.2500   -6.4952    0.0000 C   0  0  0  0  0  0  0  0  0  0  0  0
    7.5000   -5.1962    0.0000 C   0  0  0  0  0  0  0  0  0  0  0  0
    0.7500   -1.2990    0.0000 C   0  0  0  0  0  0  0  0  0  0  0  0
    1.5000    0.0000    0.0000 C   0  0  0  0  0  0  0  0  0  0  0  0
    0.7500    1.2990    0.0000 C   0  0  0  0  0  0  0  0  0  0  0  0
   -0.7500    1.2990    0.0000 C   0  0  0  0  0  0  0  0  0  0  0  0
   -1.5000    2.5981    0.0000 O   0  0  0  0  0  0  0  0  0  0  0  0
   -0.7500    3.8971    0.0000 C   0  0  0  0  0  0  0  0  0  0  0  0
   -1.5000    0.0000    0.0000 C   0  0  0  0  0  0  0  0  0  0  0  0
   -0.7500   -1.2990    0.0000 C   0  0  0  0  0  0  0  0  0  0  0  0
   -1.5000   -2.5981    0.0000 N   0  0  0  0  0  0  0  0  0  0  0  0
   -0.7500   -6.4952    0.0000 C   0  0  0  0  0  0  0  0  0  0  0  0
   -1.5000   -7.7942    0.0000 C   0  0  0  0  0  0  0  0  0  0  0  0
  1  2  1  0
  2  3  1  0
  3  4  1  0
  4  5  1  0
  5  6  2  0
  6  7  1  0
  7  8  2  0
  8  9  1  0
  9 10  2  0
 10 11  1  0
 11 12  1  0
 12 13  1  0
 13 14  1  0
 14 15  1  0
 15 16  1  0
 16 17  1  0
 17 18  1  0
 18 19  1  0
 19 20  1  0
 11 21  2  0
 21 22  1  0
 22 23  2  0
 23 24  1  0
 24 25  1  0
 25 26  1  0
 24 27  2  0
 27 28  1  0
 28 29  2  0
  8 30  1  0
 30 31  2  0
 31  5  1  0
 29  9  1  0
 20 15  1  0
 28 21  1  0
M  END
>  <Unnamed: 0>  (9) 
94

>  <atc_classifications>  (9) 
[]

>  <availability_type>  (9) 
-1

>  <biotherapeutic>  (9) 
nan

>  <black_box_warning>  (9) 
0

>  <chebi_par_id>  (9) 
nan

>  <chemical_probe>  (9) 
0

>  <chirality>  (9) 
-1

>  <cross_references>  (9) 
[]

>  <dosed_ingredient>  (9) 
False

>  <first_approval>  (9) 
nan

>  <first_in_class>  (9) 
-1

>  <helm_notation>  (9) 
nan

>  <indication_class>  (9) 
nan

>  <inorganic_flag>  (9) 
-1

>  <max_phase>  (9) 
nan

>  <molecule_hierarchy>  (9) 
{'active_chembl_id': 'CHEMBL4161736', 'molecule_chembl_id': 'CHEMBL4161736', 'parent_chembl_id': 'CHEMBL4161736'}

>  <molecule_properties>  (9) 
{'alogp': '5.56', 'aromatic_rings': 3, 'cx_logd': '3.78', 'cx_logp': '5.44', 'cx_most_apka': None, 'cx_most_bpka': '9.05', 'full_molformula': 'C26H32N2O3', 'full_mwt': '420.55', 'hba': 5, 'hba_lipinski': 5, 'hbd': 0, 'hbd_lipinski': 0, 'heavy_atoms': 31, 'molecular_species': 'BASE', 'mw_freebase': '420.55', 'mw_monoisotopic': '420.2413', 'np_likeness_score': '-0.96', 'num_lipinski_ro5_violations': 1, 'num_ro5_violations': 1, 'psa': '43.82', 'qed_weighted': '0.45', 'ro3_pass': 'N', 'rtb': 9}

>  <molecule_synonyms>  (9) 
[]

>  <molecule_type>  (9) 
Small molecule

>  <natural_product>  (9) 
0

>  <oral>  (9) 
False

>  <parenteral>  (9) 
False

>  <polymer_flag>  (9) 
0

>  <pref_name>  (9) 
nan

>  <prodrug>  (9) 
-1

>  <structure_type>  (9) 
MOL

>  <therapeutic_flag>  (9) 
False

>  <topical>  (9) 
False

>  <usan_stem>  (9) 
nan

>  <usan_stem_definition>  (9) 
nan

>  <usan_substem>  (9) 
nan

>  <usan_year>  (9) 
nan

>  <withdrawn_flag>  (9) 
False

>  <smiles>  (9) 
CCCOc1ccc(-c2cc(OCCN3CCCCC3)c3ccc(OC)cc3n2)cc1

>  <cluster>  (9) 
2

$$$$
CHEMBL4162139
     RDKit          2D

 31 34  0  0  0  0  0  0  0  0999 V2000
   -7.5000  -10.3923    0.0000 C   0  0  0  0  0  0  0  0  0  0  0  0
   -6.0000  -10.3923    0.0000 C   0  0  0  0  0  0  0  0  0  0  0  0
   -5.2500   -9.0933    0.0000 C   0  0  0  0  0  0  0  0  0  0  0  0
   -3.7500   -9.0933    0.0000 O   0  0  0  0  0  0  0  0  0  0  0  0
   -3.0000   -7.7942    0.0000 C   0  0  0  0  0  0  0  0  0  0  0  0
   -3.7500   -6.4952    0.0000 C   0  0  0  0  0  0  0  0  0  0  0  0
   -3.0000   -5.1962    0.0000 C   0  0  0  0  0  0  0  0  0  0  0  0
   -1.5000   -5.1962    0.0000 C   0  0  0  0  0  0  0  0  0  0  0  0
   -0.7500   -3.8971    0.0000 C   0  0  0  0  0  0  0  0  0  0  0  0
    0.7500   -3.8971    0.0000 C   0  0  0  0  0  0  0  0  0  0  0  0
    1.5000   -2.5981    0.0000 C   0  0  0  0  0  0  0  0  0  0  0  0
    3.0000   -2.5981    0.0000 O   0  0  0  0  0  0  0  0  0  0  0  0
    3.7500   -3.8971    0.0000 C   0  0  0  0  0  0  0  0  0  0  0  0
    5.2500   -3.8971    0.0000 C   0  0  0  0  0  0  0  0  0  0  0  0
    6.0000   -5.1962    0.0000 N   0  0  0  0  0  0  0  0  0  0  0  0
    5.2500   -6.4952    0.0000 C   0  0  0  0  0  0  0  0  0  0  0  0
    6.0000   -7.7942    0.0000 C   0  0  0  0  0  0  0  0  0  0  0  0
    7.5000   -7.7942    0.0000 C   0  0  0  0  0  0  0  0  0  0  0  0
    8.2500   -6.4952    0.0000 C   0  0  0  0  0  0  0  0  0  0  0  0
    7.5000   -5.1962    0.0000 C   0  0  0  0  0  0  0  0  0  0  0  0
    0.7500   -1.2990    0.0000 C   0  0  0  0  0  0  0  0  0  0  0  0
    1.5000    0.0000    0.0000 C   0  0  0  0  0  0  0  0  0  0  0  0
    0.7500    1.2990    0.0000 C   0  0  0  0  0  0  0  0  0  0  0  0
    1.5000    2.5981    0.0000 O   0  0  0  0  0  0  0  0  0  0  0  0
    3.0000    2.5981    0.0000 C   0  0  0  0  0  0  0  0  0  0  0  0
   -0.7500    1.2990    0.0000 C   0  0  0  0  0  0  0  0  0  0  0  0
   -1.5000    0.0000    0.0000 C   0  0  0  0  0  0  0  0  0  0  0  0
   -0.7500   -1.2990    0.0000 C   0  0  0  0  0  0  0  0  0  0  0  0
   -1.5000   -2.5981    0.0000 N   0  0  0  0  0  0  0  0  0  0  0  0
   -0.7500   -6.4952    0.0000 C   0  0  0  0  0  0  0  0  0  0  0  0
   -1.5000   -7.7942    0.0000 C   0  0  0  0  0  0  0  0  0  0  0  0
  1  2  1  0
  2  3  1  0
  3  4  1  0
  4  5  1  0
  5  6  2  0
  6  7  1  0
  7  8  2  0
  8  9  1  0
  9 10  2  0
 10 11  1  0
 11 12  1  0
 12 13  1  0
 13 14  1  0
 14 15  1  0
 15 16  1  0
 16 17  1  0
 17 18  1  0
 18 19  1  0
 19 20  1  0
 11 21  2  0
 21 22  1  0
 22 23  2  0
 23 24  1  0
 24 25  1  0
 23 26  1  0
 26 27  2  0
 27 28  1  0
 28 29  2  0
  8 30  1  0
 30 31  2  0
 31  5  1  0
 29  9  1  0
 20 15  1  0
 28 21  1  0
M  END
>  <Unnamed: 0>  (10) 
95

>  <atc_classifications>  (10) 
[]

>  <availability_type>  (10) 
-1

>  <biotherapeutic>  (10) 
nan

>  <black_box_warning>  (10) 
0

>  <chebi_par_id>  (10) 
nan

>  <chemical_probe>  (10) 
0

>  <chirality>  (10) 
-1

>  <cross_references>  (10) 
[]

>  <dosed_ingredient>  (10) 
False

>  <first_approval>  (10) 
nan

>  <first_in_class>  (10) 
-1

>  <helm_notation>  (10) 
nan

>  <indication_class>  (10) 
nan

>  <inorganic_flag>  (10) 
-1

>  <max_phase>  (10) 
nan

>  <molecule_hierarchy>  (10) 
{'active_chembl_id': 'CHEMBL4162139', 'molecule_chembl_id': 'CHEMBL4162139', 'parent_chembl_id': 'CHEMBL4162139'}

>  <molecule_properties>  (10) 
{'alogp': '5.56', 'aromatic_rings': 3, 'cx_logd': '3.81', 'cx_logp': '5.44', 'cx_most_apka': None, 'cx_most_bpka': '9.03', 'full_molformula': 'C26H32N2O3', 'full_mwt': '420.55', 'hba': 5, 'hba_lipinski': 5, 'hbd': 0, 'hbd_lipinski': 0, 'heavy_atoms': 31, 'molecular_species': 'BASE', 'mw_freebase': '420.55', 'mw_monoisotopic': '420.2413', 'np_likeness_score': '-1.01', 'num_lipinski_ro5_violations': 1, 'num_ro5_violations': 1, 'psa': '43.82', 'qed_weighted': '0.45', 'ro3_pass': 'N', 'rtb': 9}

>  <molecule_synonyms>  (10) 
[]

>  <molecule_type>  (10) 
Small molecule

>  <natural_product>  (10) 
0

>  <oral>  (10) 
False

>  <parenteral>  (10) 
False

>  <polymer_flag>  (10) 
0

>  <pref_name>  (10) 
nan

>  <prodrug>  (10) 
-1

>  <structure_type>  (10) 
MOL

>  <therapeutic_flag>  (10) 
False

>  <topical>  (10) 
False

>  <usan_stem>  (10) 
nan

>  <usan_stem_definition>  (10) 
nan

>  <usan_substem>  (10) 
nan

>  <usan_year>  (10) 
nan

>  <withdrawn_flag>  (10) 
False

>  <smiles>  (10) 
CCCOc1ccc(-c2cc(OCCN3CCCCC3)c3cc(OC)ccc3n2)cc1

>  <cluster>  (10) 
2

$$$$
CHEMBL4162146
     RDKit          2D

 23 25  0  0  0  0  0  0  0  0999 V2000
   -7.5000  -10.3923    0.0000 C   0  0  0  0  0  0  0  0  0  0  0  0
   -6.0000  -10.3923    0.0000 C   0  0  0  0  0  0  0  0  0  0  0  0
   -5.2500   -9.0933    0.0000 C   0  0  0  0  0  0  0  0  0  0  0  0
   -3.7500   -9.0933    0.0000 O   0  0  0  0  0  0  0  0  0  0  0  0
   -3.0000   -7.7942    0.0000 C   0  0  0  0  0  0  0  0  0  0  0  0
   -3.7500   -6.4952    0.0000 C   0  0  0  0  0  0  0  0  0  0  0  0
   -3.0000   -5.1962    0.0000 C   0  0  0  0  0  0  0  0  0  0  0  0
   -1.5000   -5.1962    0.0000 C   0  0  0  0  0  0  0  0  0  0  0  0
   -0.7500   -3.8971    0.0000 C   0  0  0  0  0  0  0  0  0  0  0  0
    0.7500   -3.8971    0.0000 C   0  0  0  0  0  0  0  0  0  0  0  0
    1.5000   -2.5981    0.0000 C   0  0  0  0  0  0  0  0  0  0  0  0
    3.0000   -2.5981    0.0000 O   0  0  0  0  0  0  0  0  0  0  0  0
    0.7500   -1.2990    0.0000 C   0  0  0  0  0  0  0  0  0  0  0  0
    1.5000    0.0000    0.0000 C   0  0  0  0  0  0  0  0  0  0  0  0
    3.0000    0.0000    0.0000 O   0  0  0  0  0  0  0  0  0  0  0  0
    3.7500    1.2990    0.0000 C   0  0  0  0  0  0  0  0  0  0  0  0
    0.7500    1.2990    0.0000 C   0  0  0  0  0  0  0  0  0  0  0  0
   -0.7500    1.2990    0.0000 C   0  0  0  0  0  0  0  0  0  0  0  0
   -1.5000    0.0000    0.0000 C   0  0  0  0  0  0  0  0  0  0  0  0
   -0.7500   -1.2990    0.0000 C   0  0  0  0  0  0  0  0  0  0  0  0
   -1.5000   -2.5981    0.0000 N   0  0  0  0  0  0  0  0  0  0  0  0
   -0.7500   -6.4952    0.0000 C   0  0  0  0  0  0  0  0  0  0  0  0
   -1.5000   -7.7942    0.0000 C   0  0  0  0  0  0  0  0  0  0  0  0
  1  2  1  0
  2  3  1  0
  3  4  1  0
  4  5  1  0
  5  6  2  0
  6  7  1  0
  7  8  2  0
  8  9  1  0
  9 10  2  0
 10 11  1  0
 11 12  1  0
 11 13  2  0
 13 14  1  0
 14 15  1  0
 15 16  1  0
 14 17  2  0
 17 18  1  0
 18 19  2  0
 19 20  1  0
 20 21  2  0
  8 22  1  0
 22 23  2  0
 23  5  1  0
 21  9  1  0
 20 13  1  0
M  END
>  <Unnamed: 0>  (11) 
96

>  <atc_classifications>  (11) 
[]

>  <availability_type>  (11) 
-1

>  <biotherapeutic>  (11) 
nan

>  <black_box_warning>  (11) 
0

>  <chebi_par_id>  (11) 
nan

>  <chemical_probe>  (11) 
0

>  <chirality>  (11) 
-1

>  <cross_references>  (11) 
[]

>  <dosed_ingredient>  (11) 
False

>  <first_approval>  (11) 
nan

>  <first_in_class>  (11) 
-1

>  <helm_notation>  (11) 
nan

>  <indication_class>  (11) 
nan

>  <inorganic_flag>  (11) 
-1

>  <max_phase>  (11) 
nan

>  <molecule_hierarchy>  (11) 
{'active_chembl_id': 'CHEMBL4162146', 'molecule_chembl_id': 'CHEMBL4162146', 'parent_chembl_id': 'CHEMBL4162146'}

>  <molecule_properties>  (11) 
{'alogp': '4.40', 'aromatic_rings': 3, 'cx_logd': '4.42', 'cx_logp': '4.42', 'cx_most_apka': '10.05', 'cx_most_bpka': '2.82', 'full_molformula': 'C19H19NO3', 'full_mwt': '309.37', 'hba': 4, 'hba_lipinski': 4, 'hbd': 1, 'hbd_lipinski': 1, 'heavy_atoms': 23, 'molecular_species': 'NEUTRAL', 'mw_freebase': '309.37', 'mw_monoisotopic': '309.1365', 'np_likeness_score': '-0.43', 'num_lipinski_ro5_violations': 0, 'num_ro5_violations': 0, 'psa': '51.58', 'qed_weighted': '0.76', 'ro3_pass': 'N', 'rtb': 5}

>  <molecule_synonyms>  (11) 
[]

>  <molecule_type>  (11) 
Small molecule

>  <natural_product>  (11) 
0

>  <oral>  (11) 
False

>  <parenteral>  (11) 
False

>  <polymer_flag>  (11) 
0

>  <pref_name>  (11) 
nan

>  <prodrug>  (11) 
-1

>  <structure_type>  (11) 
MOL

>  <therapeutic_flag>  (11) 
False

>  <topical>  (11) 
False

>  <usan_stem>  (11) 
nan

>  <usan_stem_definition>  (11) 
nan

>  <usan_substem>  (11) 
nan

>  <usan_year>  (11) 
nan

>  <withdrawn_flag>  (11) 
False

>  <smiles>  (11) 
CCCOc1ccc(-c2cc(O)c3c(OC)cccc3n2)cc1

>  <cluster>  (11) 
2

$$$$
CHEMBL4163342
     RDKit          2D

 32 34  0  0  0  0  0  0  0  0999 V2000
    3.0000  -10.3923    0.0000 C   0  0  0  0  0  0  0  0  0  0  0  0
    3.7500   -9.0933    0.0000 C   0  0  0  0  0  0  0  0  0  0  0  0
    3.0000   -7.7942    0.0000 C   0  0  0  0  0  0  0  0  0  0  0  0
    3.7500   -6.4952    0.0000 O   0  0  0  0  0  0  0  0  0  0  0  0
    3.0000   -5.1962    0.0000 C   0  0  0  0  0  0  0  0  0  0  0  0
    1.5000   -5.1962    0.0000 C   0  0  0  0  0  0  0  0  0  0  0  0
    0.7500   -3.8971    0.0000 C   0  0  0  0  0  0  0  0  0  0  0  0
    1.5000   -2.5981    0.0000 C   0  0  0  0  0  0  0  0  0  0  0  0
    0.7500   -1.2990    0.0000 C   0  0  0  0  0  0  0  0  0  0  0  0
    1.5000    0.0000    0.0000 C   0  0  0  0  0  0  0  0  0  0  0  0
    0.7500    1.2990    0.0000 C   0  0  0  0  0  0  0  0  0  0  0  0
    1.5000    2.5981    0.0000 O   0  0  0  0  0  0  0  0  0  0  0  0
    3.0000    2.5981    0.0000 C   0  0  0  0  0  0  0  0  0  0  0  0
    3.7500    3.8971    0.0000 C   0  0  0  0  0  0  0  0  0  0  0  0
    5.2500    3.8971    0.0000 N   0  0  0  0  0  0  0  0  0  0  0  0
    6.0000    5.1962    0.0000 C   0  0  0  0  0  0  0  0  0  0  0  0
    7.5000    5.1962    0.0000 C   0  0  0  0  0  0  0  0  0  0  0  0
    6.0000    2.5981    0.0000 C   0  0  0  0  0  0  0  0  0  0  0  0
    7.5000    2.5981    0.0000 C   0  0  0  0  0  0  0  0  0  0  0  0
   -0.7500    1.2990    0.0000 C   0  0  0  0  0  0  0  0  0  0  0  0
   -1.5000    2.5981    0.0000 C   0  0  0  0  0  0  0  0  0  0  0  0
   -0.7500    3.8971    0.0000 O   0  0  0  0  0  0  0  0  0  0  0  0
   -1.5000    5.1962    0.0000 C   0  0  0  0  0  0  0  0  0  0  0  0
   -3.0000    2.5981    0.0000 C   0  0  0  0  0  0  0  0  0  0  0  0
   -3.7500    1.2990    0.0000 C   0  0  0  0  0  0  0  0  0  0  0  0
   -5.2500    1.2990    0.0000 O   0  0  0  0  0  0  0  0  0  0  0  0
   -6.0000    2.5981    0.0000 C   0  0  0  0  0  0  0  0  0  0  0  0
   -3.0000    0.0000    0.0000 C   0  0  0  0  0  0  0  0  0  0  0  0
   -1.5000    0.0000    0.0000 C   0  0  0  0  0  0  0  0  0  0  0  0
   -0.7500   -1.2990    0.0000 N   0  0  0  0  0  0  0  0  0  0  0  0
    3.0000   -2.5981    0.0000 C   0  0  0  0  0  0  0  0  0  0  0  0
    3.7500   -3.8971    0.0000 C   0  0  0  0  0  0  0  0  0  0  0  0
  1  2  1  0
  2  3  1  0
  3  4  1  0
  4  5  1  0
  5  6  2  0
  6  7  1  0
  7  8  2  0
  8  9  1  0
  9 10  2  0
 10 11  1  0
 11 12  1  0
 12 13  1  0
 13 14  1  0
 14 15  1  0
 15 16  1  0
 16 17  1  0
 15 18  1  0
 18 19  1  0
 11 20  2  0
 20 21  1  0
 21 22  1  0
 22 23  1  0
 21 24  2  0
 24 25  1  0
 25 26  1  0
 26 27  1  0
 25 28  2  0
 28 29  1  0
 29 30  2  0
  8 31  1  0
 31 32  2  0
 32  5  1  0
 30  9  1  0
 29 20  1  0
M  END
>  <Unnamed: 0>  (12) 
97

>  <atc_classifications>  (12) 
[]

>  <availability_type>  (12) 
-1

>  <biotherapeutic>  (12) 
nan

>  <black_box_warning>  (12) 
0

>  <chebi_par_id>  (12) 
nan

>  <chemical_probe>  (12) 
0

>  <chirality>  (12) 
-1

>  <cross_references>  (12) 
[]

>  <dosed_ingredient>  (12) 
False

>  <first_approval>  (12) 
nan

>  <first_in_class>  (12) 
-1

>  <helm_notation>  (12) 
nan

>  <indication_class>  (12) 
nan

>  <inorganic_flag>  (12) 
-1

>  <max_phase>  (12) 
nan

>  <molecule_hierarchy>  (12) 
{'active_chembl_id': 'CHEMBL4163342', 'molecule_chembl_id': 'CHEMBL4163342', 'parent_chembl_id': 'CHEMBL4163342'}

>  <molecule_properties>  (12) 
{'alogp': '5.43', 'aromatic_rings': 3, 'cx_logd': '3.27', 'cx_logp': '5.14', 'cx_most_apka': None, 'cx_most_bpka': '9.24', 'full_molformula': 'C26H34N2O4', 'full_mwt': '438.57', 'hba': 6, 'hba_lipinski': 6, 'hbd': 0, 'hbd_lipinski': 0, 'heavy_atoms': 32, 'molecular_species': 'BASE', 'mw_freebase': '438.57', 'mw_monoisotopic': '438.2519', 'np_likeness_score': '-0.77', 'num_lipinski_ro5_violations': 1, 'num_ro5_violations': 1, 'psa': '53.05', 'qed_weighted': '0.38', 'ro3_pass': 'N', 'rtb': 12}

>  <molecule_synonyms>  (12) 
[]

>  <molecule_type>  (12) 
Small molecule

>  <natural_product>  (12) 
0

>  <oral>  (12) 
False

>  <parenteral>  (12) 
False

>  <polymer_flag>  (12) 
0

>  <pref_name>  (12) 
nan

>  <prodrug>  (12) 
-1

>  <structure_type>  (12) 
MOL

>  <therapeutic_flag>  (12) 
False

>  <topical>  (12) 
False

>  <usan_stem>  (12) 
nan

>  <usan_stem_definition>  (12) 
nan

>  <usan_substem>  (12) 
nan

>  <usan_year>  (12) 
nan

>  <withdrawn_flag>  (12) 
False

>  <smiles>  (12) 
CCCOc1ccc(-c2cc(OCCN(CC)CC)c3c(OC)cc(OC)cc3n2)cc1

>  <cluster>  (12) 
2

$$$$
CHEMBL4164426
     RDKit          2D

 33 36  0  0  0  0  0  0  0  0999 V2000
    3.0000  -10.3923    0.0000 C   0  0  0  0  0  0  0  0  0  0  0  0
    3.7500   -9.0933    0.0000 C   0  0  0  0  0  0  0  0  0  0  0  0
    3.0000   -7.7942    0.0000 C   0  0  0  0  0  0  0  0  0  0  0  0
    3.7500   -6.4952    0.0000 O   0  0  0  0  0  0  0  0  0  0  0  0
    3.0000   -5.1962    0.0000 C   0  0  0  0  0  0  0  0  0  0  0  0
    1.5000   -5.1962    0.0000 C   0  0  0  0  0  0  0  0  0  0  0  0
    0.7500   -3.8971    0.0000 C   0  0  0  0  0  0  0  0  0  0  0  0
    1.5000   -2.5981    0.0000 C   0  0  0  0  0  0  0  0  0  0  0  0
    0.7500   -1.2990    0.0000 C   0  0  0  0  0  0  0  0  0  0  0  0
    1.5000    0.0000    0.0000 C   0  0  0  0  0  0  0  0  0  0  0  0
    0.7500    1.2990    0.0000 C   0  0  0  0  0  0  0  0  0  0  0  0
    1.5000    2.5981    0.0000 O   0  0  0  0  0  0  0  0  0  0  0  0
    3.0000    2.5981    0.0000 C   0  0  0  0  0  0  0  0  0  0  0  0
    3.7500    3.8971    0.0000 C   0  0  0  0  0  0  0  0  0  0  0  0
    5.2500    3.8971    0.0000 N   0  0  0  0  0  0  0  0  0  0  0  0
    6.0000    2.5981    0.0000 C   0  0  0  0  0  0  0  0  0  0  0  0
    7.5000    2.5981    0.0000 C   0  0  0  0  0  0  0  0  0  0  0  0
    8.2500    3.8971    0.0000 C   0  0  0  0  0  0  0  0  0  0  0  0
    7.5000    5.1962    0.0000 C   0  0  0  0  0  0  0  0  0  0  0  0
    6.0000    5.1962    0.0000 C   0  0  0  0  0  0  0  0  0  0  0  0
   -0.7500    1.2990    0.0000 C   0  0  0  0  0  0  0  0  0  0  0  0
   -1.5000    2.5981    0.0000 C   0  0  0  0  0  0  0  0  0  0  0  0
   -3.0000    2.5981    0.0000 C   0  0  0  0  0  0  0  0  0  0  0  0
   -3.7500    3.8971    0.0000 O   0  0  0  0  0  0  0  0  0  0  0  0
   -3.0000    5.1962    0.0000 C   0  0  0  0  0  0  0  0  0  0  0  0
   -3.7500    1.2990    0.0000 C   0  0  0  0  0  0  0  0  0  0  0  0
   -5.2500    1.2990    0.0000 O   0  0  0  0  0  0  0  0  0  0  0  0
   -6.0000    0.0000    0.0000 C   0  0  0  0  0  0  0  0  0  0  0  0
   -3.0000    0.0000    0.0000 C   0  0  0  0  0  0  0  0  0  0  0  0
   -1.5000    0.0000    0.0000 C   0  0  0  0  0  0  0  0  0  0  0  0
   -0.7500   -1.2990    0.0000 N   0  0  0  0  0  0  0  0  0  0  0  0
    3.0000   -2.5981    0.0000 C   0  0  0  0  0  0  0  0  0  0  0  0
    3.7500   -3.8971    0.0000 C   0  0  0  0  0  0  0  0  0  0  0  0
  1  2  1  0
  2  3  1  0
  3  4  1  0
  4  5  1  0
  5  6  2  0
  6  7  1  0
  7  8  2  0
  8  9  1  0
  9 10  2  0
 10 11  1  0
 11 12  1  0
 12 13  1  0
 13 14  1  0
 14 15  1  0
 15 16  1  0
 16 17  1  0
 17 18  1  0
 18 19  1  0
 19 20  1  0
 11 21  2  0
 21 22  1  0
 22 23  2  0
 23 24  1  0
 24 25  1  0
 23 26  1  0
 26 27  1  0
 27 28  1  0
 26 29  2  0
 29 30  1  0
 30 31  2  0
  8 32  1  0
 32 33  2  0
 33  5  1  0
 31  9  1  0
 20 15  1  0
 30 21  1  0
M  END
>  <Unnamed: 0>  (13) 
98

>  <atc_classifications>  (13) 
[]

>  <availability_type>  (13) 
-1

>  <biotherapeutic>  (13) 
nan

>  <black_box_warning>  (13) 
0

>  <chebi_par_id>  (13) 
nan

>  <chemical_probe>  (13) 
0

>  <chirality>  (13) 
-1

>  <cross_references>  (13) 
[]

>  <dosed_ingredient>  (13) 
False

>  <first_approval>  (13) 
nan

>  <first_in_class>  (13) 
-1

>  <helm_notation>  (13) 
nan

>  <indication_class>  (13) 
nan

>  <inorganic_flag>  (13) 
-1

>  <max_phase>  (13) 
nan

>  <molecule_hierarchy>  (13) 
{'active_chembl_id': 'CHEMBL4164426', 'molecule_chembl_id': 'CHEMBL4164426', 'parent_chembl_id': 'CHEMBL4164426'}

>  <molecule_properties>  (13) 
{'alogp': '5.57', 'aromatic_rings': 3, 'cx_logd': '3.64', 'cx_logp': '5.28', 'cx_most_apka': None, 'cx_most_bpka': '9.03', 'full_molformula': 'C27H34N2O4', 'full_mwt': '450.58', 'hba': 6, 'hba_lipinski': 6, 'hbd': 0, 'hbd_lipinski': 0, 'heavy_atoms': 33, 'molecular_species': 'BASE', 'mw_freebase': '450.58', 'mw_monoisotopic': '450.2519', 'np_likeness_score': '-0.87', 'num_lipinski_ro5_violations': 1, 'num_ro5_violations': 1, 'psa': '53.05', 'qed_weighted': '0.40', 'ro3_pass': 'N', 'rtb': 10}

>  <molecule_synonyms>  (13) 
[]

>  <molecule_type>  (13) 
Small molecule

>  <natural_product>  (13) 
0

>  <oral>  (13) 
False

>  <parenteral>  (13) 
False

>  <polymer_flag>  (13) 
0

>  <pref_name>  (13) 
nan

>  <prodrug>  (13) 
-1

>  <structure_type>  (13) 
MOL

>  <therapeutic_flag>  (13) 
False

>  <topical>  (13) 
False

>  <usan_stem>  (13) 
nan

>  <usan_stem_definition>  (13) 
nan

>  <usan_substem>  (13) 
nan

>  <usan_year>  (13) 
nan

>  <withdrawn_flag>  (13) 
False

>  <smiles>  (13) 
CCCOc1ccc(-c2cc(OCCN3CCCCC3)c3cc(OC)c(OC)cc3n2)cc1

>  <cluster>  (13) 
2

$$$$
CHEMBL4164737
     RDKit          2D

 30 32  0  0  0  0  0  0  0  0999 V2000
   -7.5000  -10.3923    0.0000 C   0  0  0  0  0  0  0  0  0  0  0  0
   -6.0000  -10.3923    0.0000 C   0  0  0  0  0  0  0  0  0  0  0  0
   -5.2500   -9.0933    0.0000 C   0  0  0  0  0  0  0  0  0  0  0  0
   -3.7500   -9.0933    0.0000 O   0  0  0  0  0  0  0  0  0  0  0  0
   -3.0000   -7.7942    0.0000 C   0  0  0  0  0  0  0  0  0  0  0  0
   -3.7500   -6.4952    0.0000 C   0  0  0  0  0  0  0  0  0  0  0  0
   -3.0000   -5.1962    0.0000 C   0  0  0  0  0  0  0  0  0  0  0  0
   -1.5000   -5.1962    0.0000 C   0  0  0  0  0  0  0  0  0  0  0  0
   -0.7500   -3.8971    0.0000 C   0  0  0  0  0  0  0  0  0  0  0  0
    0.7500   -3.8971    0.0000 C   0  0  0  0  0  0  0  0  0  0  0  0
    1.5000   -2.5981    0.0000 C   0  0  0  0  0  0  0  0  0  0  0  0
    3.0000   -2.5981    0.0000 O   0  0  0  0  0  0  0  0  0  0  0  0
    3.7500   -3.8971    0.0000 C   0  0  0  0  0  0  0  0  0  0  0  0
    5.2500   -3.8971    0.0000 C   0  0  0  0  0  0  0  0  0  0  0  0
    6.0000   -5.1962    0.0000 N   0  0  0  0  0  0  0  0  0  0  0  0
    7.5000   -5.1962    0.0000 C   0  0  0  0  0  0  0  0  0  0  0  0
    8.2500   -6.4952    0.0000 C   0  0  0  0  0  0  0  0  0  0  0  0
    5.2500   -6.4952    0.0000 C   0  0  0  0  0  0  0  0  0  0  0  0
    6.0000   -7.7942    0.0000 C   0  0  0  0  0  0  0  0  0  0  0  0
    0.7500   -1.2990    0.0000 C   0  0  0  0  0  0  0  0  0  0  0  0
    1.5000    0.0000    0.0000 C   0  0  0  0  0  0  0  0  0  0  0  0
    0.7500    1.2990    0.0000 C   0  0  0  0  0  0  0  0  0  0  0  0
    1.5000    2.5981    0.0000 O   0  0  0  0  0  0  0  0  0  0  0  0
    3.0000    2.5981    0.0000 C   0  0  0  0  0  0  0  0  0  0  0  0
   -0.7500    1.2990    0.0000 C   0  0  0  0  0  0  0  0  0  0  0  0
   -1.5000    0.0000    0.0000 C   0  0  0  0  0  0  0  0  0  0  0  0
   -0.7500   -1.2990    0.0000 C   0  0  0  0  0  0  0  0  0  0  0  0
   -1.5000   -2.5981    0.0000 N   0  0  0  0  0  0  0  0  0  0  0  0
   -0.7500   -6.4952    0.0000 C   0  0  0  0  0  0  0  0  0  0  0  0
   -1.5000   -7.7942    0.0000 C   0  0  0  0  0  0  0  0  0  0  0  0
  1  2  1  0
  2  3  1  0
  3  4  1  0
  4  5  1  0
  5  6  2  0
  6  7  1  0
  7  8  2  0
  8  9  1  0
  9 10  2  0
 10 11  1  0
 11 12  1  0
 12 13  1  0
 13 14  1  0
 14 15  1  0
 15 16  1  0
 16 17  1  0
 15 18  1  0
 18 19  1  0
 11 20  2  0
 20 21  1  0
 21 22  2  0
 22 23  1  0
 23 24  1  0
 22 25  1  0
 25 26  2  0
 26 27  1  0
 27 28  2  0
  8 29  1  0
 29 30  2  0
 30  5  1  0
 28  9  1  0
 27 20  1  0
M  END
>  <Unnamed: 0>  (14) 
99

>  <atc_classifications>  (14) 
[]

>  <availability_type>  (14) 
-1

>  <biotherapeutic>  (14) 
nan

>  <black_box_warning>  (14) 
0

>  <chebi_par_id>  (14) 
nan

>  <chemical_probe>  (14) 
0

>  <chirality>  (14) 
-1

>  <cross_references>  (14) 
[]

>  <dosed_ingredient>  (14) 
False

>  <first_approval>  (14) 
nan

>  <first_in_class>  (14) 
-1

>  <helm_notation>  (14) 
nan

>  <indication_class>  (14) 
nan

>  <inorganic_flag>  (14) 
-1

>  <max_phase>  (14) 
nan

>  <molecule_hierarchy>  (14) 
{'active_chembl_id': 'CHEMBL4164737', 'molecule_chembl_id': 'CHEMBL4164737', 'parent_chembl_id': 'CHEMBL4164737'}

>  <molecule_properties>  (14) 
{'alogp': '5.42', 'aromatic_rings': 3, 'cx_logd': '3.42', 'cx_logp': '5.30', 'cx_most_apka': None, 'cx_most_bpka': '9.28', 'full_molformula': 'C25H32N2O3', 'full_mwt': '408.54', 'hba': 5, 'hba_lipinski': 5, 'hbd': 0, 'hbd_lipinski': 0, 'heavy_atoms': 30, 'molecular_species': 'BASE', 'mw_freebase': '408.54', 'mw_monoisotopic': '408.2413', 'np_likeness_score': '-1.03', 'num_lipinski_ro5_violations': 1, 'num_ro5_violations': 1, 'psa': '43.82', 'qed_weighted': '0.42', 'ro3_pass': 'N', 'rtb': 11}

>  <molecule_synonyms>  (14) 
[]

>  <molecule_type>  (14) 
Small molecule

>  <natural_product>  (14) 
0

>  <oral>  (14) 
False

>  <parenteral>  (14) 
False

>  <polymer_flag>  (14) 
0

>  <pref_name>  (14) 
nan

>  <prodrug>  (14) 
-1

>  <structure_type>  (14) 
MOL

>  <therapeutic_flag>  (14) 
False

>  <topical>  (14) 
False

>  <usan_stem>  (14) 
nan

>  <usan_stem_definition>  (14) 
nan

>  <usan_substem>  (14) 
nan

>  <usan_year>  (14) 
nan

>  <withdrawn_flag>  (14) 
False

>  <smiles>  (14) 
CCCOc1ccc(-c2cc(OCCN(CC)CC)c3cc(OC)ccc3n2)cc1

>  <cluster>  (14) 
2

$$$$
CHEMBL4164881
     RDKit          2D

 30 32  0  0  0  0  0  0  0  0999 V2000
   -7.5000  -10.3923    0.0000 C   0  0  0  0  0  0  0  0  0  0  0  0
   -6.0000  -10.3923    0.0000 C   0  0  0  0  0  0  0  0  0  0  0  0
   -5.2500   -9.0933    0.0000 C   0  0  0  0  0  0  0  0  0  0  0  0
   -3.7500   -9.0933    0.0000 O   0  0  0  0  0  0  0  0  0  0  0  0
   -3.0000   -7.7942    0.0000 C   0  0  0  0  0  0  0  0  0  0  0  0
   -3.7500   -6.4952    0.0000 C   0  0  0  0  0  0  0  0  0  0  0  0
   -3.0000   -5.1962    0.0000 C   0  0  0  0  0  0  0  0  0  0  0  0
   -1.5000   -5.1962    0.0000 C   0  0  0  0  0  0  0  0  0  0  0  0
   -0.7500   -3.8971    0.0000 C   0  0  0  0  0  0  0  0  0  0  0  0
    0.7500   -3.8971    0.0000 C   0  0  0  0  0  0  0  0  0  0  0  0
    1.5000   -2.5981    0.0000 C   0  0  0  0  0  0  0  0  0  0  0  0
    3.0000   -2.5981    0.0000 O   0  0  0  0  0  0  0  0  0  0  0  0
    3.7500   -3.8971    0.0000 C   0  0  0  0  0  0  0  0  0  0  0  0
    5.2500   -3.8971    0.0000 C   0  0  0  0  0  0  0  0  0  0  0  0
    6.0000   -5.1962    0.0000 N   0  0  0  0  0  0  0  0  0  0  0  0
    7.5000   -5.1962    0.0000 C   0  0  0  0  0  0  0  0  0  0  0  0
    8.2500   -6.4952    0.0000 C   0  0  0  0  0  0  0  0  0  0  0  0
    5.2500   -6.4952    0.0000 C   0  0  0  0  0  0  0  0  0  0  0  0
    6.0000   -7.7942    0.0000 C   0  0  0  0  0  0  0  0  0  0  0  0
    0.7500   -1.2990    0.0000 C   0  0  0  0  0  0  0  0  0  0  0  0
    1.5000    0.0000    0.0000 C   0  0  0  0  0  0  0  0  0  0  0  0
    0.7500    1.2990    0.0000 C   0  0  0  0  0  0  0  0  0  0  0  0
   -0.7500    1.2990    0.0000 C   0  0  0  0  0  0  0  0  0  0  0  0
   -1.5000    0.0000    0.0000 C   0  0  0  0  0  0  0  0  0  0  0  0
   -3.0000    0.0000    0.0000 O   0  0  0  0  0  0  0  0  0  0  0  0
   -3.7500    1.2990    0.0000 C   0  0  0  0  0  0  0  0  0  0  0  0
   -0.7500   -1.2990    0.0000 C   0  0  0  0  0  0  0  0  0  0  0  0
   -1.5000   -2.5981    0.0000 N   0  0  0  0  0  0  0  0  0  0  0  0
   -0.7500   -6.4952    0.0000 C   0  0  0  0  0  0  0  0  0  0  0  0
   -1.5000   -7.7942    0.0000 C   0  0  0  0  0  0  0  0  0  0  0  0
  1  2  1  0
  2  3  1  0
  3  4  1  0
  4  5  1  0
  5  6  2  0
  6  7  1  0
  7  8  2  0
  8  9  1  0
  9 10  2  0
 10 11  1  0
 11 12  1  0
 12 13  1  0
 13 14  1  0
 14 15  1  0
 15 16  1  0
 16 17  1  0
 15 18  1  0
 18 19  1  0
 11 20  2  0
 20 21  1  0
 21 22  2  0
 22 23  1  0
 23 24  2  0
 24 25  1  0
 25 26  1  0
 24 27  1  0
 27 28  2  0
  8 29  1  0
 29 30  2  0
 30  5  1  0
 28  9  1  0
 27 20  1  0
M  END
>  <Unnamed: 0>  (15) 
100

>  <atc_classifications>  (15) 
[]

>  <availability_type>  (15) 
-1

>  <biotherapeutic>  (15) 
nan

>  <black_box_warning>  (15) 
0

>  <chebi_par_id>  (15) 
nan

>  <chemical_probe>  (15) 
0

>  <chirality>  (15) 
-1

>  <cross_references>  (15) 
[]

>  <dosed_ingredient>  (15) 
False

>  <first_approval>  (15) 
nan

>  <first_in_class>  (15) 
-1

>  <helm_notation>  (15) 
nan

>  <indication_class>  (15) 
nan

>  <inorganic_flag>  (15) 
-1

>  <max_phase>  (15) 
nan

>  <molecule_hierarchy>  (15) 
{'active_chembl_id': 'CHEMBL4164881', 'molecule_chembl_id': 'CHEMBL4164881', 'parent_chembl_id': 'CHEMBL4164881'}

>  <molecule_properties>  (15) 
{'alogp': '5.42', 'aromatic_rings': 3, 'cx_logd': '3.42', 'cx_logp': '5.30', 'cx_most_apka': None, 'cx_most_bpka': '9.28', 'full_molformula': 'C25H32N2O3', 'full_mwt': '408.54', 'hba': 5, 'hba_lipinski': 5, 'hbd': 0, 'hbd_lipinski': 0, 'heavy_atoms': 30, 'molecular_species': 'BASE', 'mw_freebase': '408.54', 'mw_monoisotopic': '408.2413', 'np_likeness_score': '-1.03', 'num_lipinski_ro5_violations': 1, 'num_ro5_violations': 1, 'psa': '43.82', 'qed_weighted': '0.42', 'ro3_pass': 'N', 'rtb': 11}

>  <molecule_synonyms>  (15) 
[]

>  <molecule_type>  (15) 
Small molecule

>  <natural_product>  (15) 
0

>  <oral>  (15) 
False

>  <parenteral>  (15) 
False

>  <polymer_flag>  (15) 
0

>  <pref_name>  (15) 
nan

>  <prodrug>  (15) 
-1

>  <structure_type>  (15) 
MOL

>  <therapeutic_flag>  (15) 
False

>  <topical>  (15) 
False

>  <usan_stem>  (15) 
nan

>  <usan_stem_definition>  (15) 
nan

>  <usan_substem>  (15) 
nan

>  <usan_year>  (15) 
nan

>  <withdrawn_flag>  (15) 
False

>  <smiles>  (15) 
CCCOc1ccc(-c2cc(OCCN(CC)CC)c3cccc(OC)c3n2)cc1

>  <cluster>  (15) 
2

$$$$
CHEMBL4166649
     RDKit          2D

 25 27  0  0  0  0  0  0  0  0999 V2000
    3.0000  -10.3923    0.0000 C   0  0  0  0  0  0  0  0  0  0  0  0
    3.7500   -9.0933    0.0000 C   0  0  0  0  0  0  0  0  0  0  0  0
    3.0000   -7.7942    0.0000 C   0  0  0  0  0  0  0  0  0  0  0  0
    3.7500   -6.4952    0.0000 O   0  0  0  0  0  0  0  0  0  0  0  0
    3.0000   -5.1962    0.0000 C   0  0  0  0  0  0  0  0  0  0  0  0
    1.5000   -5.1962    0.0000 C   0  0  0  0  0  0  0  0  0  0  0  0
    0.7500   -3.8971    0.0000 C   0  0  0  0  0  0  0  0  0  0  0  0
    1.5000   -2.5981    0.0000 C   0  0  0  0  0  0  0  0  0  0  0  0
    0.7500   -1.2990    0.0000 C   0  0  0  0  0  0  0  0  0  0  0  0
    1.5000    0.0000    0.0000 C   0  0  0  0  0  0  0  0  0  0  0  0
    0.7500    1.2990    0.0000 C   0  0  0  0  0  0  0  0  0  0  0  0
    1.5000    2.5981    0.0000 O   0  0  0  0  0  0  0  0  0  0  0  0
   -0.7500    1.2990    0.0000 C   0  0  0  0  0  0  0  0  0  0  0  0
   -1.5000    2.5981    0.0000 C   0  0  0  0  0  0  0  0  0  0  0  0
   -3.0000    2.5981    0.0000 C   0  0  0  0  0  0  0  0  0  0  0  0
   -3.7500    3.8971    0.0000 O   0  0  0  0  0  0  0  0  0  0  0  0
   -3.0000    5.1962    0.0000 C   0  0  0  0  0  0  0  0  0  0  0  0
   -3.7500    1.2990    0.0000 C   0  0  0  0  0  0  0  0  0  0  0  0
   -5.2500    1.2990    0.0000 O   0  0  0  0  0  0  0  0  0  0  0  0
   -6.0000    0.0000    0.0000 C   0  0  0  0  0  0  0  0  0  0  0  0
   -3.0000    0.0000    0.0000 C   0  0  0  0  0  0  0  0  0  0  0  0
   -1.5000    0.0000    0.0000 C   0  0  0  0  0  0  0  0  0  0  0  0
   -0.7500   -1.2990    0.0000 N   0  0  0  0  0  0  0  0  0  0  0  0
    3.0000   -2.5981    0.0000 C   0  0  0  0  0  0  0  0  0  0  0  0
    3.7500   -3.8971    0.0000 C   0  0  0  0  0  0  0  0  0  0  0  0
  1  2  1  0
  2  3  1  0
  3  4  1  0
  4  5  1  0
  5  6  2  0
  6  7  1  0
  7  8  2  0
  8  9  1  0
  9 10  2  0
 10 11  1  0
 11 12  1  0
 11 13  2  0
 13 14  1  0
 14 15  2  0
 15 16  1  0
 16 17  1  0
 15 18  1  0
 18 19  1  0
 19 20  1  0
 18 21  2  0
 21 22  1  0
 22 23  2  0
  8 24  1  0
 24 25  2  0
 25  5  1  0
 23  9  1  0
 22 13  1  0
M  END
>  <Unnamed: 0>  (16) 
102

>  <atc_classifications>  (16) 
[]

>  <availability_type>  (16) 
-1

>  <biotherapeutic>  (16) 
nan

>  <black_box_warning>  (16) 
0

>  <chebi_par_id>  (16) 
nan

>  <chemical_probe>  (16) 
0

>  <chirality>  (16) 
-1

>  <cross_references>  (16) 
[]

>  <dosed_ingredient>  (16) 
False

>  <first_approval>  (16) 
nan

>  <first_in_class>  (16) 
-1

>  <helm_notation>  (16) 
nan

>  <indication_class>  (16) 
nan

>  <inorganic_flag>  (16) 
-1

>  <max_phase>  (16) 
nan

>  <molecule_hierarchy>  (16) 
{'active_chembl_id': 'CHEMBL4166649', 'molecule_chembl_id': 'CHEMBL4166649', 'parent_chembl_id': 'CHEMBL4166649'}

>  <molecule_properties>  (16) 
{'alogp': '4.41', 'aromatic_rings': 3, 'cx_logd': '4.27', 'cx_logp': '4.27', 'cx_most_apka': '10.87', 'cx_most_bpka': '2.71', 'full_molformula': 'C20H21NO4', 'full_mwt': '339.39', 'hba': 5, 'hba_lipinski': 5, 'hbd': 1, 'hbd_lipinski': 1, 'heavy_atoms': 25, 'molecular_species': 'NEUTRAL', 'mw_freebase': '339.39', 'mw_monoisotopic': '339.1471', 'np_likeness_score': '-0.42', 'num_lipinski_ro5_violations': 0, 'num_ro5_violations': 0, 'psa': '60.81', 'qed_weighted': '0.72', 'ro3_pass': 'N', 'rtb': 6}

>  <molecule_synonyms>  (16) 
[]

>  <molecule_type>  (16) 
Small molecule

>  <natural_product>  (16) 
0

>  <oral>  (16) 
False

>  <parenteral>  (16) 
False

>  <polymer_flag>  (16) 
0

>  <pref_name>  (16) 
nan

>  <prodrug>  (16) 
-1

>  <structure_type>  (16) 
MOL

>  <therapeutic_flag>  (16) 
False

>  <topical>  (16) 
False

>  <usan_stem>  (16) 
nan

>  <usan_stem_definition>  (16) 
nan

>  <usan_substem>  (16) 
nan

>  <usan_year>  (16) 
nan

>  <withdrawn_flag>  (16) 
False

>  <smiles>  (16) 
CCCOc1ccc(-c2cc(O)c3cc(OC)c(OC)cc3n2)cc1

>  <cluster>  (16) 
2

$$$$
CHEMBL4167074
     RDKit          2D

 32 35  0  0  0  0  0  0  0  0999 V2000
   -7.5000  -10.3923    0.0000 C   0  0  0  0  0  0  0  0  0  0  0  0
   -6.0000  -10.3923    0.0000 C   0  0  0  0  0  0  0  0  0  0  0  0
   -5.2500   -9.0933    0.0000 C   0  0  0  0  0  0  0  0  0  0  0  0
   -3.7500   -9.0933    0.0000 O   0  0  0  0  0  0  0  0  0  0  0  0
   -3.0000   -7.7942    0.0000 C   0  0  0  0  0  0  0  0  0  0  0  0
   -3.7500   -6.4952    0.0000 C   0  0  0  0  0  0  0  0  0  0  0  0
   -3.0000   -5.1962    0.0000 C   0  0  0  0  0  0  0  0  0  0  0  0
   -1.5000   -5.1962    0.0000 C   0  0  0  0  0  0  0  0  0  0  0  0
   -0.7500   -3.8971    0.0000 C   0  0  0  0  0  0  0  0  0  0  0  0
    0.7500   -3.8971    0.0000 C   0  0  0  0  0  0  0  0  0  0  0  0
    1.5000   -2.5981    0.0000 C   0  0  0  0  0  0  0  0  0  0  0  0
    3.0000   -2.5981    0.0000 O   0  0  0  0  0  0  0  0  0  0  0  0
    3.7500   -3.8971    0.0000 C   0  0  0  0  0  0  0  0  0  0  0  0
    5.2500   -3.8971    0.0000 C   0  0  0  0  0  0  0  0  0  0  0  0
    6.0000   -5.1962    0.0000 N   0  0  0  0  0  0  0  0  0  0  0  0
    7.4958   -5.0841    0.0000 C   0  0  0  0  0  0  0  0  0  0  0  0
    8.5161   -6.1836    0.0000 C   0  0  0  0  0  0  0  0  0  0  0  0
    8.2925   -7.6669    0.0000 C   0  0  0  0  0  0  0  0  0  0  0  0
    6.9935   -8.4169    0.0000 C   0  0  0  0  0  0  0  0  0  0  0  0
    5.5972   -7.8689    0.0000 C   0  0  0  0  0  0  0  0  0  0  0  0
    5.1550   -6.4355    0.0000 C   0  0  0  0  0  0  0  0  0  0  0  0
    0.7500   -1.2990    0.0000 C   0  0  0  0  0  0  0  0  0  0  0  0
    1.5000    0.0000    0.0000 C   0  0  0  0  0  0  0  0  0  0  0  0
    0.7500    1.2990    0.0000 C   0  0  0  0  0  0  0  0  0  0  0  0
   -0.7500    1.2990    0.0000 C   0  0  0  0  0  0  0  0  0  0  0  0
   -1.5000    2.5981    0.0000 O   0  0  0  0  0  0  0  0  0  0  0  0
   -0.7500    3.8971    0.0000 C   0  0  0  0  0  0  0  0  0  0  0  0
   -1.5000    0.0000    0.0000 C   0  0  0  0  0  0  0  0  0  0  0  0
   -0.7500   -1.2990    0.0000 C   0  0  0  0  0  0  0  0  0  0  0  0
   -1.5000   -2.5981    0.0000 N   0  0  0  0  0  0  0  0  0  0  0  0
   -0.7500   -6.4952    0.0000 C   0  0  0  0  0  0  0  0  0  0  0  0
   -1.5000   -7.7942    0.0000 C   0  0  0  0  0  0  0  0  0  0  0  0
  1  2  1  0
  2  3  1  0
  3  4  1  0
  4  5  1  0
  5  6  2  0
  6  7  1  0
  7  8  2  0
  8  9  1  0
  9 10  2  0
 10 11  1  0
 11 12  1  0
 12 13  1  0
 13 14  1  0
 14 15  1  0
 15 16  1  0
 16 17  1  0
 17 18  1  0
 18 19  1  0
 19 20  1  0
 20 21  1  0
 11 22  2  0
 22 23  1  0
 23 24  2  0
 24 25  1  0
 25 26  1  0
 26 27  1  0
 25 28  2  0
 28 29  1  0
 29 30  2  0
  8 31  1  0
 31 32  2  0
 32  5  1  0
 30  9  1  0
 21 15  1  0
 29 22  1  0
M  END
>  <Unnamed: 0>  (17) 
103

>  <atc_classifications>  (17) 
[]

>  <availability_type>  (17) 
-1

>  <biotherapeutic>  (17) 
nan

>  <black_box_warning>  (17) 
0

>  <chebi_par_id>  (17) 
nan

>  <chemical_probe>  (17) 
0

>  <chirality>  (17) 
-1

>  <cross_references>  (17) 
[]

>  <dosed_ingredient>  (17) 
False

>  <first_approval>  (17) 
nan

>  <first_in_class>  (17) 
-1

>  <helm_notation>  (17) 
nan

>  <indication_class>  (17) 
nan

>  <inorganic_flag>  (17) 
-1

>  <max_phase>  (17) 
nan

>  <molecule_hierarchy>  (17) 
{'active_chembl_id': 'CHEMBL4167074', 'molecule_chembl_id': 'CHEMBL4167074', 'parent_chembl_id': 'CHEMBL4167074'}

>  <molecule_properties>  (17) 
{'alogp': '5.95', 'aromatic_rings': 3, 'cx_logd': '3.77', 'cx_logp': '5.88', 'cx_most_apka': None, 'cx_most_bpka': '9.52', 'full_molformula': 'C27H34N2O3', 'full_mwt': '434.58', 'hba': 5, 'hba_lipinski': 5, 'hbd': 0, 'hbd_lipinski': 0, 'heavy_atoms': 32, 'molecular_species': 'BASE', 'mw_freebase': '434.58', 'mw_monoisotopic': '434.2569', 'np_likeness_score': '-0.93', 'num_lipinski_ro5_violations': 1, 'num_ro5_violations': 1, 'psa': '43.82', 'qed_weighted': '0.42', 'ro3_pass': 'N', 'rtb': 9}

>  <molecule_synonyms>  (17) 
[]

>  <molecule_type>  (17) 
Small molecule

>  <natural_product>  (17) 
0

>  <oral>  (17) 
False

>  <parenteral>  (17) 
False

>  <polymer_flag>  (17) 
0

>  <pref_name>  (17) 
nan

>  <prodrug>  (17) 
-1

>  <structure_type>  (17) 
MOL

>  <therapeutic_flag>  (17) 
False

>  <topical>  (17) 
False

>  <usan_stem>  (17) 
nan

>  <usan_stem_definition>  (17) 
nan

>  <usan_substem>  (17) 
nan

>  <usan_year>  (17) 
nan

>  <withdrawn_flag>  (17) 
False

>  <smiles>  (17) 
CCCOc1ccc(-c2cc(OCCN3CCCCCC3)c3ccc(OC)cc3n2)cc1

>  <cluster>  (17) 
2

$$$$
CHEMBL4168315
     RDKit          2D

 38 42  0  0  0  0  0  0  0  0999 V2000
   -7.5000  -10.3923    0.0000 C   0  0  0  0  0  0  0  0  0  0  0  0
   -6.0000  -10.3923    0.0000 C   0  0  0  0  0  0  0  0  0  0  0  0
   -5.2500   -9.0933    0.0000 C   0  0  0  0  0  0  0  0  0  0  0  0
   -3.7500   -9.0933    0.0000 O   0  0  0  0  0  0  0  0  0  0  0  0
   -3.0000   -7.7942    0.0000 C   0  0  0  0  0  0  0  0  0  0  0  0
   -3.7500   -6.4952    0.0000 C   0  0  0  0  0  0  0  0  0  0  0  0
   -3.0000   -5.1962    0.0000 C   0  0  0  0  0  0  0  0  0  0  0  0
   -1.5000   -5.1962    0.0000 C   0  0  0  0  0  0  0  0  0  0  0  0
   -0.7500   -3.8971    0.0000 C   0  0  0  0  0  0  0  0  0  0  0  0
    0.7500   -3.8971    0.0000 C   0  0  0  0  0  0  0  0  0  0  0  0
    1.5000   -2.5981    0.0000 C   0  0  0  0  0  0  0  0  0  0  0  0
    3.0000   -2.5981    0.0000 O   0  0  0  0  0  0  0  0  0  0  0  0
    3.7500   -3.8971    0.0000 C   0  0  0  0  0  0  0  0  0  0  0  0
    5.2500   -3.8971    0.0000 C   0  0  0  0  0  0  0  0  0  0  0  0
    6.0000   -5.1962    0.0000 N   0  0  0  0  0  0  0  0  0  0  0  0
    5.2500   -6.4952    0.0000 C   0  0  0  0  0  0  0  0  0  0  0  0
    6.0000   -7.7942    0.0000 C   0  0  0  0  0  0  0  0  0  0  0  0
    7.5000   -7.7942    0.0000 N   0  0  0  0  0  0  0  0  0  0  0  0
    8.2500   -9.0933    0.0000 C   0  0  0  0  0  0  0  0  0  0  0  0
    7.5000  -10.3923    0.0000 C   0  0  0  0  0  0  0  0  0  0  0  0
    6.0000  -10.3923    0.0000 C   0  0  0  0  0  0  0  0  0  0  0  0
    5.2500  -11.6913    0.0000 C   0  0  0  0  0  0  0  0  0  0  0  0
    6.0000  -12.9904    0.0000 C   0  0  0  0  0  0  0  0  0  0  0  0
    7.5000  -12.9904    0.0000 C   0  0  0  0  0  0  0  0  0  0  0  0
    8.2500  -11.6913    0.0000 C   0  0  0  0  0  0  0  0  0  0  0  0
    8.2500   -6.4952    0.0000 C   0  0  0  0  0  0  0  0  0  0  0  0
    7.5000   -5.1962    0.0000 C   0  0  0  0  0  0  0  0  0  0  0  0
    0.7500   -1.2990    0.0000 C   0  0  0  0  0  0  0  0  0  0  0  0
    1.5000    0.0000    0.0000 C   0  0  0  0  0  0  0  0  0  0  0  0
    0.7500    1.2990    0.0000 C   0  0  0  0  0  0  0  0  0  0  0  0
   -0.7500    1.2990    0.0000 C   0  0  0  0  0  0  0  0  0  0  0  0
   -1.5000    2.5981    0.0000 O   0  0  0  0  0  0  0  0  0  0  0  0
   -0.7500    3.8971    0.0000 C   0  0  0  0  0  0  0  0  0  0  0  0
   -1.5000    0.0000    0.0000 C   0  0  0  0  0  0  0  0  0  0  0  0
   -0.7500   -1.2990    0.0000 C   0  0  0  0  0  0  0  0  0  0  0  0
   -1.5000   -2.5981    0.0000 N   0  0  0  0  0  0  0  0  0  0  0  0
   -0.7500   -6.4952    0.0000 C   0  0  0  0  0  0  0  0  0  0  0  0
   -1.5000   -7.7942    0.0000 C   0  0  0  0  0  0  0  0  0  0  0  0
  1  2  1  0
  2  3  1  0
  3  4  1  0
  4  5  1  0
  5  6  2  0
  6  7  1  0
  7  8  2  0
  8  9  1  0
  9 10  2  0
 10 11  1  0
 11 12  1  0
 12 13  1  0
 13 14  1  0
 14 15  1  0
 15 16  1  0
 16 17  1  0
 17 18  1  0
 18 19  1  0
 19 20  1  0
 20 21  2  0
 21 22  1  0
 22 23  2  0
 23 24  1  0
 24 25  2  0
 18 26  1  0
 26 27  1  0
 11 28  2  0
 28 29  1  0
 29 30  2  0
 30 31  1  0
 31 32  1  0
 32 33  1  0
 31 34  2  0
 34 35  1  0
 35 36  2  0
  8 37  1  0
 37 38  2  0
 38  5  1  0
 36  9  1  0
 27 15  1  0
 35 28  1  0
 25 20  1  0
M  END
>  <Unnamed: 0>  (18) 
104

>  <atc_classifications>  (18) 
[]

>  <availability_type>  (18) 
-1

>  <biotherapeutic>  (18) 
nan

>  <black_box_warning>  (18) 
0

>  <chebi_par_id>  (18) 
nan

>  <chemical_probe>  (18) 
0

>  <chirality>  (18) 
-1

>  <cross_references>  (18) 
[]

>  <dosed_ingredient>  (18) 
False

>  <first_approval>  (18) 
nan

>  <first_in_class>  (18) 
-1

>  <helm_notation>  (18) 
nan

>  <indication_class>  (18) 
nan

>  <inorganic_flag>  (18) 
-1

>  <max_phase>  (18) 
nan

>  <molecule_hierarchy>  (18) 
{'active_chembl_id': 'CHEMBL4168315', 'molecule_chembl_id': 'CHEMBL4168315', 'parent_chembl_id': 'CHEMBL4168315'}

>  <molecule_properties>  (18) 
{'alogp': '5.90', 'aromatic_rings': 4, 'cx_logd': '5.55', 'cx_logp': '6.16', 'cx_most_apka': None, 'cx_most_bpka': '7.88', 'full_molformula': 'C32H37N3O3', 'full_mwt': '511.67', 'hba': 6, 'hba_lipinski': 6, 'hbd': 0, 'hbd_lipinski': 0, 'heavy_atoms': 38, 'molecular_species': 'NEUTRAL', 'mw_freebase': '511.67', 'mw_monoisotopic': '511.2835', 'np_likeness_score': '-1.00', 'num_lipinski_ro5_violations': 2, 'num_ro5_violations': 2, 'psa': '47.06', 'qed_weighted': '0.25', 'ro3_pass': 'N', 'rtb': 11}

>  <molecule_synonyms>  (18) 
[]

>  <molecule_type>  (18) 
Small molecule

>  <natural_product>  (18) 
0

>  <oral>  (18) 
False

>  <parenteral>  (18) 
False

>  <polymer_flag>  (18) 
0

>  <pref_name>  (18) 
nan

>  <prodrug>  (18) 
-1

>  <structure_type>  (18) 
MOL

>  <therapeutic_flag>  (18) 
False

>  <topical>  (18) 
False

>  <usan_stem>  (18) 
nan

>  <usan_stem_definition>  (18) 
nan

>  <usan_substem>  (18) 
nan

>  <usan_year>  (18) 
nan

>  <withdrawn_flag>  (18) 
False

>  <smiles>  (18) 
CCCOc1ccc(-c2cc(OCCN3CCN(Cc4ccccc4)CC3)c3ccc(OC)cc3n2)cc1

>  <cluster>  (18) 
2

$$$$
CHEMBL4168943
     RDKit          2D

 32 34  0  0  0  0  0  0  0  0999 V2000
    3.0000  -10.3923    0.0000 C   0  0  0  0  0  0  0  0  0  0  0  0
    3.7500   -9.0933    0.0000 C   0  0  0  0  0  0  0  0  0  0  0  0
    3.0000   -7.7942    0.0000 C   0  0  0  0  0  0  0  0  0  0  0  0
    3.7500   -6.4952    0.0000 O   0  0  0  0  0  0  0  0  0  0  0  0
    3.0000   -5.1962    0.0000 C   0  0  0  0  0  0  0  0  0  0  0  0
    1.5000   -5.1962    0.0000 C   0  0  0  0  0  0  0  0  0  0  0  0
    0.7500   -3.8971    0.0000 C   0  0  0  0  0  0  0  0  0  0  0  0
    1.5000   -2.5981    0.0000 C   0  0  0  0  0  0  0  0  0  0  0  0
    0.7500   -1.2990    0.0000 C   0  0  0  0  0  0  0  0  0  0  0  0
    1.5000    0.0000    0.0000 C   0  0  0  0  0  0  0  0  0  0  0  0
    0.7500    1.2990    0.0000 C   0  0  0  0  0  0  0  0  0  0  0  0
    1.5000    2.5981    0.0000 O   0  0  0  0  0  0  0  0  0  0  0  0
    3.0000    2.5981    0.0000 C   0  0  0  0  0  0  0  0  0  0  0  0
    3.7500    3.8971    0.0000 C   0  0  0  0  0  0  0  0  0  0  0  0
    5.2500    3.8971    0.0000 N   0  0  0  0  0  0  0  0  0  0  0  0
    6.0000    5.1962    0.0000 C   0  0  0  0  0  0  0  0  0  0  0  0
    7.5000    5.1962    0.0000 C   0  0  0  0  0  0  0  0  0  0  0  0
    6.0000    2.5981    0.0000 C   0  0  0  0  0  0  0  0  0  0  0  0
    7.5000    2.5981    0.0000 C   0  0  0  0  0  0  0  0  0  0  0  0
   -0.7500    1.2990    0.0000 C   0  0  0  0  0  0  0  0  0  0  0  0
   -1.5000    2.5981    0.0000 C   0  0  0  0  0  0  0  0  0  0  0  0
   -3.0000    2.5981    0.0000 C   0  0  0  0  0  0  0  0  0  0  0  0
   -3.7500    3.8971    0.0000 O   0  0  0  0  0  0  0  0  0  0  0  0
   -3.0000    5.1962    0.0000 C   0  0  0  0  0  0  0  0  0  0  0  0
   -3.7500    1.2990    0.0000 C   0  0  0  0  0  0  0  0  0  0  0  0
   -3.0000    0.0000    0.0000 C   0  0  0  0  0  0  0  0  0  0  0  0
   -3.7500   -1.2990    0.0000 O   0  0  0  0  0  0  0  0  0  0  0  0
   -5.2500   -1.2990    0.0000 C   0  0  0  0  0  0  0  0  0  0  0  0
   -1.5000    0.0000    0.0000 C   0  0  0  0  0  0  0  0  0  0  0  0
   -0.7500   -1.2990    0.0000 N   0  0  0  0  0  0  0  0  0  0  0  0
    3.0000   -2.5981    0.0000 C   0  0  0  0  0  0  0  0  0  0  0  0
    3.7500   -3.8971    0.0000 C   0  0  0  0  0  0  0  0  0  0  0  0
  1  2  1  0
  2  3  1  0
  3  4  1  0
  4  5  1  0
  5  6  2  0
  6  7  1  0
  7  8  2  0
  8  9  1  0
  9 10  2  0
 10 11  1  0
 11 12  1  0
 12 13  1  0
 13 14  1  0
 14 15  1  0
 15 16  1  0
 16 17  1  0
 15 18  1  0
 18 19  1  0
 11 20  2  0
 20 21  1  0
 21 22  2  0
 22 23  1  0
 23 24  1  0
 22 25  1  0
 25 26  2  0
 26 27  1  0
 27 28  1  0
 26 29  1  0
 29 30  2  0
  8 31  1  0
 31 32  2  0
 32  5  1  0
 30  9  1  0
 29 20  1  0
M  END
>  <Unnamed: 0>  (19) 
105

>  <atc_classifications>  (19) 
[]

>  <availability_type>  (19) 
-1

>  <biotherapeutic>  (19) 
nan

>  <black_box_warning>  (19) 
0

>  <chebi_par_id>  (19) 
nan

>  <chemical_probe>  (19) 
0

>  <chirality>  (19) 
-1

>  <cross_references>  (19) 
[]

>  <dosed_ingredient>  (19) 
False

>  <first_approval>  (19) 
nan

>  <first_in_class>  (19) 
-1

>  <helm_notation>  (19) 
nan

>  <indication_class>  (19) 
nan

>  <inorganic_flag>  (19) 
-1

>  <max_phase>  (19) 
nan

>  <molecule_hierarchy>  (19) 
{'active_chembl_id': 'CHEMBL4168943', 'molecule_chembl_id': 'CHEMBL4168943', 'parent_chembl_id': 'CHEMBL4168943'}

>  <molecule_properties>  (19) 
{'alogp': '5.43', 'aromatic_rings': 3, 'cx_logd': '3.25', 'cx_logp': '5.14', 'cx_most_apka': None, 'cx_most_bpka': '9.30', 'full_molformula': 'C26H34N2O4', 'full_mwt': '438.57', 'hba': 6, 'hba_lipinski': 6, 'hbd': 0, 'hbd_lipinski': 0, 'heavy_atoms': 32, 'molecular_species': 'BASE', 'mw_freebase': '438.57', 'mw_monoisotopic': '438.2519', 'np_likeness_score': '-0.86', 'num_lipinski_ro5_violations': 1, 'num_ro5_violations': 1, 'psa': '53.05', 'qed_weighted': '0.38', 'ro3_pass': 'N', 'rtb': 12}

>  <molecule_synonyms>  (19) 
[]

>  <molecule_type>  (19) 
Small molecule

>  <natural_product>  (19) 
0

>  <oral>  (19) 
False

>  <parenteral>  (19) 
False

>  <polymer_flag>  (19) 
0

>  <pref_name>  (19) 
nan

>  <prodrug>  (19) 
-1

>  <structure_type>  (19) 
MOL

>  <therapeutic_flag>  (19) 
False

>  <topical>  (19) 
False

>  <usan_stem>  (19) 
nan

>  <usan_stem_definition>  (19) 
nan

>  <usan_substem>  (19) 
nan

>  <usan_year>  (19) 
nan

>  <withdrawn_flag>  (19) 
False

>  <smiles>  (19) 
CCCOc1ccc(-c2cc(OCCN(CC)CC)c3cc(OC)cc(OC)c3n2)cc1

>  <cluster>  (19) 
2

$$$$
CHEMBL4169246
     RDKit          2D

 30 32  0  0  0  0  0  0  0  0999 V2000
   -7.5000  -10.3923    0.0000 C   0  0  0  0  0  0  0  0  0  0  0  0
   -6.0000  -10.3923    0.0000 C   0  0  0  0  0  0  0  0  0  0  0  0
   -5.2500   -9.0933    0.0000 C   0  0  0  0  0  0  0  0  0  0  0  0
   -3.7500   -9.0933    0.0000 O   0  0  0  0  0  0  0  0  0  0  0  0
   -3.0000   -7.7942    0.0000 C   0  0  0  0  0  0  0  0  0  0  0  0
   -3.7500   -6.4952    0.0000 C   0  0  0  0  0  0  0  0  0  0  0  0
   -3.0000   -5.1962    0.0000 C   0  0  0  0  0  0  0  0  0  0  0  0
   -1.5000   -5.1962    0.0000 C   0  0  0  0  0  0  0  0  0  0  0  0
   -0.7500   -3.8971    0.0000 C   0  0  0  0  0  0  0  0  0  0  0  0
    0.7500   -3.8971    0.0000 C   0  0  0  0  0  0  0  0  0  0  0  0
    1.5000   -2.5981    0.0000 C   0  0  0  0  0  0  0  0  0  0  0  0
    3.0000   -2.5981    0.0000 O   0  0  0  0  0  0  0  0  0  0  0  0
    3.7500   -3.8971    0.0000 C   0  0  0  0  0  0  0  0  0  0  0  0
    5.2500   -3.8971    0.0000 C   0  0  0  0  0  0  0  0  0  0  0  0
    6.0000   -5.1962    0.0000 N   0  0  0  0  0  0  0  0  0  0  0  0
    7.5000   -5.1962    0.0000 C   0  0  0  0  0  0  0  0  0  0  0  0
    8.2500   -6.4952    0.0000 C   0  0  0  0  0  0  0  0  0  0  0  0
    5.2500   -6.4952    0.0000 C   0  0  0  0  0  0  0  0  0  0  0  0
    6.0000   -7.7942    0.0000 C   0  0  0  0  0  0  0  0  0  0  0  0
    0.7500   -1.2990    0.0000 C   0  0  0  0  0  0  0  0  0  0  0  0
    1.5000    0.0000    0.0000 C   0  0  0  0  0  0  0  0  0  0  0  0
    3.0000    0.0000    0.0000 O   0  0  0  0  0  0  0  0  0  0  0  0
    3.7500    1.2990    0.0000 C   0  0  0  0  0  0  0  0  0  0  0  0
    0.7500    1.2990    0.0000 C   0  0  0  0  0  0  0  0  0  0  0  0
   -0.7500    1.2990    0.0000 C   0  0  0  0  0  0  0  0  0  0  0  0
   -1.5000    0.0000    0.0000 C   0  0  0  0  0  0  0  0  0  0  0  0
   -0.7500   -1.2990    0.0000 C   0  0  0  0  0  0  0  0  0  0  0  0
   -1.5000   -2.5981    0.0000 N   0  0  0  0  0  0  0  0  0  0  0  0
   -0.7500   -6.4952    0.0000 C   0  0  0  0  0  0  0  0  0  0  0  0
   -1.5000   -7.7942    0.0000 C   0  0  0  0  0  0  0  0  0  0  0  0
  1  2  1  0
  2  3  1  0
  3  4  1  0
  4  5  1  0
  5  6  2  0
  6  7  1  0
  7  8  2  0
  8  9  1  0
  9 10  2  0
 10 11  1  0
 11 12  1  0
 12 13  1  0
 13 14  1  0
 14 15  1  0
 15 16  1  0
 16 17  1  0
 15 18  1  0
 18 19  1  0
 11 20  2  0
 20 21  1  0
 21 22  1  0
 22 23  1  0
 21 24  2  0
 24 25  1  0
 25 26  2  0
 26 27  1  0
 27 28  2  0
  8 29  1  0
 29 30  2  0
 30  5  1  0
 28  9  1  0
 27 20  1  0
M  END
>  <Unnamed: 0>  (20) 
106

>  <atc_classifications>  (20) 
[]

>  <availability_type>  (20) 
-1

>  <biotherapeutic>  (20) 
nan

>  <black_box_warning>  (20) 
0

>  <chebi_par_id>  (20) 
nan

>  <chemical_probe>  (20) 
0

>  <chirality>  (20) 
-1

>  <cross_references>  (20) 
[]

>  <dosed_ingredient>  (20) 
False

>  <first_approval>  (20) 
nan

>  <first_in_class>  (20) 
-1

>  <helm_notation>  (20) 
nan

>  <indication_class>  (20) 
nan

>  <inorganic_flag>  (20) 
-1

>  <max_phase>  (20) 
nan

>  <molecule_hierarchy>  (20) 
{'active_chembl_id': 'CHEMBL4169246', 'molecule_chembl_id': 'CHEMBL4169246', 'parent_chembl_id': 'CHEMBL4169246'}

>  <molecule_properties>  (20) 
{'alogp': '5.42', 'aromatic_rings': 3, 'cx_logd': '3.46', 'cx_logp': '5.30', 'cx_most_apka': None, 'cx_most_bpka': '9.23', 'full_molformula': 'C25H32N2O3', 'full_mwt': '408.54', 'hba': 5, 'hba_lipinski': 5, 'hbd': 0, 'hbd_lipinski': 0, 'heavy_atoms': 30, 'molecular_species': 'BASE', 'mw_freebase': '408.54', 'mw_monoisotopic': '408.2413', 'np_likeness_score': '-0.95', 'num_lipinski_ro5_violations': 1, 'num_ro5_violations': 1, 'psa': '43.82', 'qed_weighted': '0.42', 'ro3_pass': 'N', 'rtb': 11}

>  <molecule_synonyms>  (20) 
[]

>  <molecule_type>  (20) 
Small molecule

>  <natural_product>  (20) 
0

>  <oral>  (20) 
False

>  <parenteral>  (20) 
False

>  <polymer_flag>  (20) 
0

>  <pref_name>  (20) 
nan

>  <prodrug>  (20) 
-1

>  <structure_type>  (20) 
MOL

>  <therapeutic_flag>  (20) 
False

>  <topical>  (20) 
False

>  <usan_stem>  (20) 
nan

>  <usan_stem_definition>  (20) 
nan

>  <usan_substem>  (20) 
nan

>  <usan_year>  (20) 
nan

>  <withdrawn_flag>  (20) 
False

>  <smiles>  (20) 
CCCOc1ccc(-c2cc(OCCN(CC)CC)c3c(OC)cccc3n2)cc1

>  <cluster>  (20) 
2

$$$$
CHEMBL4169284
     RDKit          2D

 33 36  0  0  0  0  0  0  0  0999 V2000
    3.0000  -10.3923    0.0000 C   0  0  0  0  0  0  0  0  0  0  0  0
    3.7500   -9.0933    0.0000 C   0  0  0  0  0  0  0  0  0  0  0  0
    3.0000   -7.7942    0.0000 C   0  0  0  0  0  0  0  0  0  0  0  0
    3.7500   -6.4952    0.0000 O   0  0  0  0  0  0  0  0  0  0  0  0
    3.0000   -5.1962    0.0000 C   0  0  0  0  0  0  0  0  0  0  0  0
    1.5000   -5.1962    0.0000 C   0  0  0  0  0  0  0  0  0  0  0  0
    0.7500   -3.8971    0.0000 C   0  0  0  0  0  0  0  0  0  0  0  0
    1.5000   -2.5981    0.0000 C   0  0  0  0  0  0  0  0  0  0  0  0
    0.7500   -1.2990    0.0000 C   0  0  0  0  0  0  0  0  0  0  0  0
    1.5000    0.0000    0.0000 C   0  0  0  0  0  0  0  0  0  0  0  0
    0.7500    1.2990    0.0000 C   0  0  0  0  0  0  0  0  0  0  0  0
    1.5000    2.5981    0.0000 O   0  0  0  0  0  0  0  0  0  0  0  0
    3.0000    2.5981    0.0000 C   0  0  0  0  0  0  0  0  0  0  0  0
    3.7500    3.8971    0.0000 C   0  0  0  0  0  0  0  0  0  0  0  0
    5.2500    3.8971    0.0000 N   0  0  0  0  0  0  0  0  0  0  0  0
    6.0000    2.5981    0.0000 C   0  0  0  0  0  0  0  0  0  0  0  0
    7.5000    2.5981    0.0000 C   0  0  0  0  0  0  0  0  0  0  0  0
    8.2500    3.8971    0.0000 C   0  0  0  0  0  0  0  0  0  0  0  0
    7.5000    5.1962    0.0000 C   0  0  0  0  0  0  0  0  0  0  0  0
    6.0000    5.1962    0.0000 C   0  0  0  0  0  0  0  0  0  0  0  0
   -0.7500    1.2990    0.0000 C   0  0  0  0  0  0  0  0  0  0  0  0
   -1.5000    2.5981    0.0000 C   0  0  0  0  0  0  0  0  0  0  0  0
   -3.0000    2.5981    0.0000 C   0  0  0  0  0  0  0  0  0  0  0  0
   -3.7500    3.8971    0.0000 O   0  0  0  0  0  0  0  0  0  0  0  0
   -3.0000    5.1962    0.0000 C   0  0  0  0  0  0  0  0  0  0  0  0
   -3.7500    1.2990    0.0000 C   0  0  0  0  0  0  0  0  0  0  0  0
   -3.0000    0.0000    0.0000 C   0  0  0  0  0  0  0  0  0  0  0  0
   -3.7500   -1.2990    0.0000 O   0  0  0  0  0  0  0  0  0  0  0  0
   -5.2500   -1.2990    0.0000 C   0  0  0  0  0  0  0  0  0  0  0  0
   -1.5000    0.0000    0.0000 C   0  0  0  0  0  0  0  0  0  0  0  0
   -0.7500   -1.2990    0.0000 N   0  0  0  0  0  0  0  0  0  0  0  0
    3.0000   -2.5981    0.0000 C   0  0  0  0  0  0  0  0  0  0  0  0
    3.7500   -3.8971    0.0000 C   0  0  0  0  0  0  0  0  0  0  0  0
  1  2  1  0
  2  3  1  0
  3  4  1  0
  4  5  1  0
  5  6  2  0
  6  7  1  0
  7  8  2  0
  8  9  1  0
  9 10  2  0
 10 11  1  0
 11 12  1  0
 12 13  1  0
 13 14  1  0
 14 15  1  0
 15 16  1  0
 16 17  1  0
 17 18  1  0
 18 19  1  0
 19 20  1  0
 11 21  2  0
 21 22  1  0
 22 23  2  0
 23 24  1  0
 24 25  1  0
 23 26  1  0
 26 27  2  0
 27 28  1  0
 28 29  1  0
 27 30  1  0
 30 31  2  0
  8 32  1  0
 32 33  2  0
 33  5  1  0
 31  9  1  0
 20 15  1  0
 30 21  1  0
M  END
>  <Unnamed: 0>  (21) 
107

>  <atc_classifications>  (21) 
[]

>  <availability_type>  (21) 
-1

>  <biotherapeutic>  (21) 
nan

>  <black_box_warning>  (21) 
0

>  <chebi_par_id>  (21) 
nan

>  <chemical_probe>  (21) 
0

>  <chirality>  (21) 
-1

>  <cross_references>  (21) 
[]

>  <dosed_ingredient>  (21) 
False

>  <first_approval>  (21) 
nan

>  <first_in_class>  (21) 
-1

>  <helm_notation>  (21) 
nan

>  <indication_class>  (21) 
nan

>  <inorganic_flag>  (21) 
-1

>  <max_phase>  (21) 
nan

>  <molecule_hierarchy>  (21) 
{'active_chembl_id': 'CHEMBL4169284', 'molecule_chembl_id': 'CHEMBL4169284', 'parent_chembl_id': 'CHEMBL4169284'}

>  <molecule_properties>  (21) 
{'alogp': '5.57', 'aromatic_rings': 3, 'cx_logd': '3.64', 'cx_logp': '5.28', 'cx_most_apka': None, 'cx_most_bpka': '9.04', 'full_molformula': 'C27H34N2O4', 'full_mwt': '450.58', 'hba': 6, 'hba_lipinski': 6, 'hbd': 0, 'hbd_lipinski': 0, 'heavy_atoms': 33, 'molecular_species': 'BASE', 'mw_freebase': '450.58', 'mw_monoisotopic': '450.2519', 'np_likeness_score': '-0.84', 'num_lipinski_ro5_violations': 1, 'num_ro5_violations': 1, 'psa': '53.05', 'qed_weighted': '0.40', 'ro3_pass': 'N', 'rtb': 10}

>  <molecule_synonyms>  (21) 
[]

>  <molecule_type>  (21) 
Small molecule

>  <natural_product>  (21) 
0

>  <oral>  (21) 
False

>  <parenteral>  (21) 
False

>  <polymer_flag>  (21) 
0

>  <pref_name>  (21) 
nan

>  <prodrug>  (21) 
-1

>  <structure_type>  (21) 
MOL

>  <therapeutic_flag>  (21) 
False

>  <topical>  (21) 
False

>  <usan_stem>  (21) 
nan

>  <usan_stem_definition>  (21) 
nan

>  <usan_substem>  (21) 
nan

>  <usan_year>  (21) 
nan

>  <withdrawn_flag>  (21) 
False

>  <smiles>  (21) 
CCCOc1ccc(-c2cc(OCCN3CCCCC3)c3cc(OC)cc(OC)c3n2)cc1

>  <cluster>  (21) 
2

$$$$
CHEMBL4169390
     RDKit          2D

 31 34  0  0  0  0  0  0  0  0999 V2000
   -7.5000  -10.3923    0.0000 C   0  0  0  0  0  0  0  0  0  0  0  0
   -6.0000  -10.3923    0.0000 C   0  0  0  0  0  0  0  0  0  0  0  0
   -5.2500   -9.0933    0.0000 C   0  0  0  0  0  0  0  0  0  0  0  0
   -3.7500   -9.0933    0.0000 O   0  0  0  0  0  0  0  0  0  0  0  0
   -3.0000   -7.7942    0.0000 C   0  0  0  0  0  0  0  0  0  0  0  0
   -3.7500   -6.4952    0.0000 C   0  0  0  0  0  0  0  0  0  0  0  0
   -3.0000   -5.1962    0.0000 C   0  0  0  0  0  0  0  0  0  0  0  0
   -1.5000   -5.1962    0.0000 C   0  0  0  0  0  0  0  0  0  0  0  0
   -0.7500   -3.8971    0.0000 C   0  0  0  0  0  0  0  0  0  0  0  0
    0.7500   -3.8971    0.0000 C   0  0  0  0  0  0  0  0  0  0  0  0
    1.5000   -2.5981    0.0000 C   0  0  0  0  0  0  0  0  0  0  0  0
    3.0000   -2.5981    0.0000 O   0  0  0  0  0  0  0  0  0  0  0  0
    3.7500   -3.8971    0.0000 C   0  0  0  0  0  0  0  0  0  0  0  0
    5.2500   -3.8971    0.0000 C   0  0  0  0  0  0  0  0  0  0  0  0
    6.0000   -5.1962    0.0000 N   0  0  0  0  0  0  0  0  0  0  0  0
    5.2500   -6.4952    0.0000 C   0  0  0  0  0  0  0  0  0  0  0  0
    6.0000   -7.7942    0.0000 C   0  0  0  0  0  0  0  0  0  0  0  0
    7.5000   -7.7942    0.0000 C   0  0  0  0  0  0  0  0  0  0  0  0
    8.2500   -6.4952    0.0000 C   0  0  0  0  0  0  0  0  0  0  0  0
    7.5000   -5.1962    0.0000 C   0  0  0  0  0  0  0  0  0  0  0  0
    0.7500   -1.2990    0.0000 C   0  0  0  0  0  0  0  0  0  0  0  0
    1.5000    0.0000    0.0000 C   0  0  0  0  0  0  0  0  0  0  0  0
    0.7500    1.2990    0.0000 C   0  0  0  0  0  0  0  0  0  0  0  0
   -0.7500    1.2990    0.0000 C   0  0  0  0  0  0  0  0  0  0  0  0
   -1.5000    0.0000    0.0000 C   0  0  0  0  0  0  0  0  0  0  0  0
   -3.0000    0.0000    0.0000 O   0  0  0  0  0  0  0  0  0  0  0  0
   -3.7500    1.2990    0.0000 C   0  0  0  0  0  0  0  0  0  0  0  0
   -0.7500   -1.2990    0.0000 C   0  0  0  0  0  0  0  0  0  0  0  0
   -1.5000   -2.5981    0.0000 N   0  0  0  0  0  0  0  0  0  0  0  0
   -0.7500   -6.4952    0.0000 C   0  0  0  0  0  0  0  0  0  0  0  0
   -1.5000   -7.7942    0.0000 C   0  0  0  0  0  0  0  0  0  0  0  0
  1  2  1  0
  2  3  1  0
  3  4  1  0
  4  5  1  0
  5  6  2  0
  6  7  1  0
  7  8  2  0
  8  9  1  0
  9 10  2  0
 10 11  1  0
 11 12  1  0
 12 13  1  0
 13 14  1  0
 14 15  1  0
 15 16  1  0
 16 17  1  0
 17 18  1  0
 18 19  1  0
 19 20  1  0
 11 21  2  0
 21 22  1  0
 22 23  2  0
 23 24  1  0
 24 25  2  0
 25 26  1  0
 26 27  1  0
 25 28  1  0
 28 29  2  0
  8 30  1  0
 30 31  2  0
 31  5  1  0
 29  9  1  0
 20 15  1  0
 28 21  1  0
M  END
>  <Unnamed: 0>  (22) 
108

>  <atc_classifications>  (22) 
[]

>  <availability_type>  (22) 
-1

>  <biotherapeutic>  (22) 
nan

>  <black_box_warning>  (22) 
0

>  <chebi_par_id>  (22) 
nan

>  <chemical_probe>  (22) 
0

>  <chirality>  (22) 
-1

>  <cross_references>  (22) 
[]

>  <dosed_ingredient>  (22) 
False

>  <first_approval>  (22) 
nan

>  <first_in_class>  (22) 
-1

>  <helm_notation>  (22) 
nan

>  <indication_class>  (22) 
nan

>  <inorganic_flag>  (22) 
-1

>  <max_phase>  (22) 
nan

>  <molecule_hierarchy>  (22) 
{'active_chembl_id': 'CHEMBL4169390', 'molecule_chembl_id': 'CHEMBL4169390', 'parent_chembl_id': 'CHEMBL4169390'}

>  <molecule_properties>  (22) 
{'alogp': '5.56', 'aromatic_rings': 3, 'cx_logd': '3.78', 'cx_logp': '5.44', 'cx_most_apka': None, 'cx_most_bpka': '9.06', 'full_molformula': 'C26H32N2O3', 'full_mwt': '420.55', 'hba': 5, 'hba_lipinski': 5, 'hbd': 0, 'hbd_lipinski': 0, 'heavy_atoms': 31, 'molecular_species': 'BASE', 'mw_freebase': '420.55', 'mw_monoisotopic': '420.2413', 'np_likeness_score': '-1.00', 'num_lipinski_ro5_violations': 1, 'num_ro5_violations': 1, 'psa': '43.82', 'qed_weighted': '0.45', 'ro3_pass': 'N', 'rtb': 9}

>  <molecule_synonyms>  (22) 
[]

>  <molecule_type>  (22) 
Small molecule

>  <natural_product>  (22) 
0

>  <oral>  (22) 
False

>  <parenteral>  (22) 
False

>  <polymer_flag>  (22) 
0

>  <pref_name>  (22) 
nan

>  <prodrug>  (22) 
-1

>  <structure_type>  (22) 
MOL

>  <therapeutic_flag>  (22) 
False

>  <topical>  (22) 
False

>  <usan_stem>  (22) 
nan

>  <usan_stem_definition>  (22) 
nan

>  <usan_substem>  (22) 
nan

>  <usan_year>  (22) 
nan

>  <withdrawn_flag>  (22) 
False

>  <smiles>  (22) 
CCCOc1ccc(-c2cc(OCCN3CCCCC3)c3cccc(OC)c3n2)cc1

>  <cluster>  (22) 
2

$$$$
CHEMBL4170063
     RDKit          2D

 32 35  0  0  0  0  0  0  0  0999 V2000
   -7.5000  -10.3923    0.0000 C   0  0  0  0  0  0  0  0  0  0  0  0
   -6.0000  -10.3923    0.0000 C   0  0  0  0  0  0  0  0  0  0  0  0
   -5.2500   -9.0933    0.0000 C   0  0  0  0  0  0  0  0  0  0  0  0
   -3.7500   -9.0933    0.0000 O   0  0  0  0  0  0  0  0  0  0  0  0
   -3.0000   -7.7942    0.0000 C   0  0  0  0  0  0  0  0  0  0  0  0
   -3.7500   -6.4952    0.0000 C   0  0  0  0  0  0  0  0  0  0  0  0
   -3.0000   -5.1962    0.0000 C   0  0  0  0  0  0  0  0  0  0  0  0
   -1.5000   -5.1962    0.0000 C   0  0  0  0  0  0  0  0  0  0  0  0
   -0.7500   -3.8971    0.0000 C   0  0  0  0  0  0  0  0  0  0  0  0
    0.7500   -3.8971    0.0000 C   0  0  0  0  0  0  0  0  0  0  0  0
    1.5000   -2.5981    0.0000 C   0  0  0  0  0  0  0  0  0  0  0  0
    3.0000   -2.5981    0.0000 O   0  0  0  0  0  0  0  0  0  0  0  0
    3.7500   -3.8971    0.0000 C   0  0  0  0  0  0  0  0  0  0  0  0
    5.2500   -3.8971    0.0000 C   0  0  0  0  0  0  0  0  0  0  0  0
    6.0000   -5.1962    0.0000 N   0  0  0  0  0  0  0  0  0  0  0  0
    7.4958   -5.0841    0.0000 C   0  0  0  0  0  0  0  0  0  0  0  0
    8.5161   -6.1836    0.0000 C   0  0  0  0  0  0  0  0  0  0  0  0
    8.2925   -7.6669    0.0000 C   0  0  0  0  0  0  0  0  0  0  0  0
    6.9935   -8.4169    0.0000 C   0  0  0  0  0  0  0  0  0  0  0  0
    5.5972   -7.8689    0.0000 C   0  0  0  0  0  0  0  0  0  0  0  0
    5.1550   -6.4355    0.0000 C   0  0  0  0  0  0  0  0  0  0  0  0
    0.7500   -1.2990    0.0000 C   0  0  0  0  0  0  0  0  0  0  0  0
    1.5000    0.0000    0.0000 C   0  0  0  0  0  0  0  0  0  0  0  0
    0.7500    1.2990    0.0000 C   0  0  0  0  0  0  0  0  0  0  0  0
    1.5000    2.5981    0.0000 O   0  0  0  0  0  0  0  0  0  0  0  0
    3.0000    2.5981    0.0000 C   0  0  0  0  0  0  0  0  0  0  0  0
   -0.7500    1.2990    0.0000 C   0  0  0  0  0  0  0  0  0  0  0  0
   -1.5000    0.0000    0.0000 C   0  0  0  0  0  0  0  0  0  0  0  0
   -0.7500   -1.2990    0.0000 C   0  0  0  0  0  0  0  0  0  0  0  0
   -1.5000   -2.5981    0.0000 N   0  0  0  0  0  0  0  0  0  0  0  0
   -0.7500   -6.4952    0.0000 C   0  0  0  0  0  0  0  0  0  0  0  0
   -1.5000   -7.7942    0.0000 C   0  0  0  0  0  0  0  0  0  0  0  0
  1  2  1  0
  2  3  1  0
  3  4  1  0
  4  5  1  0
  5  6  2  0
  6  7  1  0
  7  8  2  0
  8  9  1  0
  9 10  2  0
 10 11  1  0
 11 12  1  0
 12 13  1  0
 13 14  1  0
 14 15  1  0
 15 16  1  0
 16 17  1  0
 17 18  1  0
 18 19  1  0
 19 20  1  0
 20 21  1  0
 11 22  2  0
 22 23  1  0
 23 24  2  0
 24 25  1  0
 25 26  1  0
 24 27  1  0
 27 28  2  0
 28 29  1  0
 29 30  2  0
  8 31  1  0
 31 32  2  0
 32  5  1  0
 30  9  1  0
 21 15  1  0
 29 22  1  0
M  END
>  <Unnamed: 0>  (23) 
109

>  <atc_classifications>  (23) 
[]

>  <availability_type>  (23) 
-1

>  <biotherapeutic>  (23) 
nan

>  <black_box_warning>  (23) 
0

>  <chebi_par_id>  (23) 
nan

>  <chemical_probe>  (23) 
0

>  <chirality>  (23) 
-1

>  <cross_references>  (23) 
[]

>  <dosed_ingredient>  (23) 
False

>  <first_approval>  (23) 
nan

>  <first_in_class>  (23) 
-1

>  <helm_notation>  (23) 
nan

>  <indication_class>  (23) 
nan

>  <inorganic_flag>  (23) 
-1

>  <max_phase>  (23) 
nan

>  <molecule_hierarchy>  (23) 
{'active_chembl_id': 'CHEMBL4170063', 'molecule_chembl_id': 'CHEMBL4170063', 'parent_chembl_id': 'CHEMBL4170063'}

>  <molecule_properties>  (23) 
{'alogp': '5.95', 'aromatic_rings': 3, 'cx_logd': '3.80', 'cx_logp': '5.88', 'cx_most_apka': None, 'cx_most_bpka': '9.50', 'full_molformula': 'C27H34N2O3', 'full_mwt': '434.58', 'hba': 5, 'hba_lipinski': 5, 'hbd': 0, 'hbd_lipinski': 0, 'heavy_atoms': 32, 'molecular_species': 'BASE', 'mw_freebase': '434.58', 'mw_monoisotopic': '434.2569', 'np_likeness_score': '-0.98', 'num_lipinski_ro5_violations': 1, 'num_ro5_violations': 1, 'psa': '43.82', 'qed_weighted': '0.42', 'ro3_pass': 'N', 'rtb': 9}

>  <molecule_synonyms>  (23) 
[]

>  <molecule_type>  (23) 
Small molecule

>  <natural_product>  (23) 
0

>  <oral>  (23) 
False

>  <parenteral>  (23) 
False

>  <polymer_flag>  (23) 
0

>  <pref_name>  (23) 
nan

>  <prodrug>  (23) 
-1

>  <structure_type>  (23) 
MOL

>  <therapeutic_flag>  (23) 
False

>  <topical>  (23) 
False

>  <usan_stem>  (23) 
nan

>  <usan_stem_definition>  (23) 
nan

>  <usan_substem>  (23) 
nan

>  <usan_year>  (23) 
nan

>  <withdrawn_flag>  (23) 
False

>  <smiles>  (23) 
CCCOc1ccc(-c2cc(OCCN3CCCCCC3)c3cc(OC)ccc3n2)cc1

>  <cluster>  (23) 
2

$$$$
CHEMBL4171241
     RDKit          2D

 31 34  0  0  0  0  0  0  0  0999 V2000
   -7.5000  -10.3923    0.0000 C   0  0  0  0  0  0  0  0  0  0  0  0
   -6.0000  -10.3923    0.0000 C   0  0  0  0  0  0  0  0  0  0  0  0
   -5.2500   -9.0933    0.0000 C   0  0  0  0  0  0  0  0  0  0  0  0
   -3.7500   -9.0933    0.0000 O   0  0  0  0  0  0  0  0  0  0  0  0
   -3.0000   -7.7942    0.0000 C   0  0  0  0  0  0  0  0  0  0  0  0
   -3.7500   -6.4952    0.0000 C   0  0  0  0  0  0  0  0  0  0  0  0
   -3.0000   -5.1962    0.0000 C   0  0  0  0  0  0  0  0  0  0  0  0
   -1.5000   -5.1962    0.0000 C   0  0  0  0  0  0  0  0  0  0  0  0
   -0.7500   -3.8971    0.0000 C   0  0  0  0  0  0  0  0  0  0  0  0
    0.7500   -3.8971    0.0000 C   0  0  0  0  0  0  0  0  0  0  0  0
    1.5000   -2.5981    0.0000 C   0  0  0  0  0  0  0  0  0  0  0  0
    3.0000   -2.5981    0.0000 O   0  0  0  0  0  0  0  0  0  0  0  0
    3.7500   -3.8971    0.0000 C   0  0  0  0  0  0  0  0  0  0  0  0
    5.2500   -3.8971    0.0000 C   0  0  0  0  0  0  0  0  0  0  0  0
    6.0000   -5.1962    0.0000 N   0  0  0  0  0  0  0  0  0  0  0  0
    5.2500   -6.4952    0.0000 C   0  0  0  0  0  0  0  0  0  0  0  0
    6.0000   -7.7942    0.0000 C   0  0  0  0  0  0  0  0  0  0  0  0
    7.5000   -7.7942    0.0000 N   0  0  0  0  0  0  0  0  0  0  0  0
    8.2500   -6.4952    0.0000 C   0  0  0  0  0  0  0  0  0  0  0  0
    7.5000   -5.1962    0.0000 C   0  0  0  0  0  0  0  0  0  0  0  0
    0.7500   -1.2990    0.0000 C   0  0  0  0  0  0  0  0  0  0  0  0
    1.5000    0.0000    0.0000 C   0  0  0  0  0  0  0  0  0  0  0  0
    0.7500    1.2990    0.0000 C   0  0  0  0  0  0  0  0  0  0  0  0
   -0.7500    1.2990    0.0000 C   0  0  0  0  0  0  0  0  0  0  0  0
   -1.5000    0.0000    0.0000 C   0  0  0  0  0  0  0  0  0  0  0  0
   -3.0000    0.0000    0.0000 O   0  0  0  0  0  0  0  0  0  0  0  0
   -3.7500    1.2990    0.0000 C   0  0  0  0  0  0  0  0  0  0  0  0
   -0.7500   -1.2990    0.0000 C   0  0  0  0  0  0  0  0  0  0  0  0
   -1.5000   -2.5981    0.0000 N   0  0  0  0  0  0  0  0  0  0  0  0
   -0.7500   -6.4952    0.0000 C   0  0  0  0  0  0  0  0  0  0  0  0
   -1.5000   -7.7942    0.0000 C   0  0  0  0  0  0  0  0  0  0  0  0
  1  2  1  0
  2  3  1  0
  3  4  1  0
  4  5  1  0
  5  6  2  0
  6  7  1  0
  7  8  2  0
  8  9  1  0
  9 10  2  0
 10 11  1  0
 11 12  1  0
 12 13  1  0
 13 14  1  0
 14 15  1  0
 15 16  1  0
 16 17  1  0
 17 18  1  0
 18 19  1  0
 19 20  1  0
 11 21  2  0
 21 22  1  0
 22 23  2  0
 23 24  1  0
 24 25  2  0
 25 26  1  0
 26 27  1  0
 25 28  1  0
 28 29  2  0
  8 30  1  0
 30 31  2  0
 31  5  1  0
 29  9  1  0
 20 15  1  0
 28 21  1  0
M  END
>  <Unnamed: 0>  (24) 
112

>  <atc_classifications>  (24) 
[]

>  <availability_type>  (24) 
-1

>  <biotherapeutic>  (24) 
nan

>  <black_box_warning>  (24) 
0

>  <chebi_par_id>  (24) 
nan

>  <chemical_probe>  (24) 
0

>  <chirality>  (24) 
-1

>  <cross_references>  (24) 
[]

>  <dosed_ingredient>  (24) 
False

>  <first_approval>  (24) 
nan

>  <first_in_class>  (24) 
-1

>  <helm_notation>  (24) 
nan

>  <indication_class>  (24) 
nan

>  <inorganic_flag>  (24) 
-1

>  <max_phase>  (24) 
nan

>  <molecule_hierarchy>  (24) 
{'active_chembl_id': 'CHEMBL4171241', 'molecule_chembl_id': 'CHEMBL4171241', 'parent_chembl_id': 'CHEMBL4171241'}

>  <molecule_properties>  (24) 
{'alogp': '3.98', 'aromatic_rings': 3, 'cx_logd': '2.22', 'cx_logp': '4.05', 'cx_most_apka': None, 'cx_most_bpka': '9.24', 'full_molformula': 'C25H31N3O3', 'full_mwt': '421.54', 'hba': 6, 'hba_lipinski': 6, 'hbd': 1, 'hbd_lipinski': 1, 'heavy_atoms': 31, 'molecular_species': 'BASE', 'mw_freebase': '421.54', 'mw_monoisotopic': '421.2365', 'np_likeness_score': '-0.98', 'num_lipinski_ro5_violations': 0, 'num_ro5_violations': 0, 'psa': '55.85', 'qed_weighted': '0.56', 'ro3_pass': 'N', 'rtb': 9}

>  <molecule_synonyms>  (24) 
[]

>  <molecule_type>  (24) 
Small molecule

>  <natural_product>  (24) 
0

>  <oral>  (24) 
False

>  <parenteral>  (24) 
False

>  <polymer_flag>  (24) 
0

>  <pref_name>  (24) 
nan

>  <prodrug>  (24) 
-1

>  <structure_type>  (24) 
MOL

>  <therapeutic_flag>  (24) 
False

>  <topical>  (24) 
False

>  <usan_stem>  (24) 
nan

>  <usan_stem_definition>  (24) 
nan

>  <usan_substem>  (24) 
nan

>  <usan_year>  (24) 
nan

>  <withdrawn_flag>  (24) 
False

>  <smiles>  (24) 
CCCOc1ccc(-c2cc(OCCN3CCNCC3)c3cccc(OC)c3n2)cc1

>  <cluster>  (24) 
2

$$$$
CHEMBL4172225
     RDKit          2D

 34 37  0  0  0  0  0  0  0  0999 V2000
    3.0000  -10.3923    0.0000 C   0  0  0  0  0  0  0  0  0  0  0  0
    3.7500   -9.0933    0.0000 C   0  0  0  0  0  0  0  0  0  0  0  0
    3.0000   -7.7942    0.0000 C   0  0  0  0  0  0  0  0  0  0  0  0
    3.7500   -6.4952    0.0000 O   0  0  0  0  0  0  0  0  0  0  0  0
    3.0000   -5.1962    0.0000 C   0  0  0  0  0  0  0  0  0  0  0  0
    1.5000   -5.1962    0.0000 C   0  0  0  0  0  0  0  0  0  0  0  0
    0.7500   -3.8971    0.0000 C   0  0  0  0  0  0  0  0  0  0  0  0
    1.5000   -2.5981    0.0000 C   0  0  0  0  0  0  0  0  0  0  0  0
    0.7500   -1.2990    0.0000 C   0  0  0  0  0  0  0  0  0  0  0  0
    1.5000    0.0000    0.0000 C   0  0  0  0  0  0  0  0  0  0  0  0
    0.7500    1.2990    0.0000 C   0  0  0  0  0  0  0  0  0  0  0  0
    1.5000    2.5981    0.0000 O   0  0  0  0  0  0  0  0  0  0  0  0
    3.0000    2.5981    0.0000 C   0  0  0  0  0  0  0  0  0  0  0  0
    3.7500    3.8971    0.0000 C   0  0  0  0  0  0  0  0  0  0  0  0
    5.2500    3.8971    0.0000 N   0  0  0  0  0  0  0  0  0  0  0  0
    5.9008    5.2486    0.0000 C   0  0  0  0  0  0  0  0  0  0  0  0
    7.3632    5.5823    0.0000 C   0  0  0  0  0  0  0  0  0  0  0  0
    8.5360    4.6471    0.0000 C   0  0  0  0  0  0  0  0  0  0  0  0
    8.5360    3.1471    0.0000 C   0  0  0  0  0  0  0  0  0  0  0  0
    7.3632    2.2119    0.0000 C   0  0  0  0  0  0  0  0  0  0  0  0
    5.9008    2.5457    0.0000 C   0  0  0  0  0  0  0  0  0  0  0  0
   -0.7500    1.2990    0.0000 C   0  0  0  0  0  0  0  0  0  0  0  0
   -1.5000    2.5981    0.0000 C   0  0  0  0  0  0  0  0  0  0  0  0
   -3.0000    2.5981    0.0000 C   0  0  0  0  0  0  0  0  0  0  0  0
   -3.7500    3.8971    0.0000 O   0  0  0  0  0  0  0  0  0  0  0  0
   -3.0000    5.1962    0.0000 C   0  0  0  0  0  0  0  0  0  0  0  0
   -3.7500    1.2990    0.0000 C   0  0  0  0  0  0  0  0  0  0  0  0
   -3.0000    0.0000    0.0000 C   0  0  0  0  0  0  0  0  0  0  0  0
   -3.7500   -1.2990    0.0000 O   0  0  0  0  0  0  0  0  0  0  0  0
   -5.2500   -1.2990    0.0000 C   0  0  0  0  0  0  0  0  0  0  0  0
   -1.5000    0.0000    0.0000 C   0  0  0  0  0  0  0  0  0  0  0  0
   -0.7500   -1.2990    0.0000 N   0  0  0  0  0  0  0  0  0  0  0  0
    3.0000   -2.5981    0.0000 C   0  0  0  0  0  0  0  0  0  0  0  0
    3.7500   -3.8971    0.0000 C   0  0  0  0  0  0  0  0  0  0  0  0
  1  2  1  0
  2  3  1  0
  3  4  1  0
  4  5  1  0
  5  6  2  0
  6  7  1  0
  7  8  2  0
  8  9  1  0
  9 10  2  0
 10 11  1  0
 11 12  1  0
 12 13  1  0
 13 14  1  0
 14 15  1  0
 15 16  1  0
 16 17  1  0
 17 18  1  0
 18 19  1  0
 19 20  1  0
 20 21  1  0
 11 22  2  0
 22 23  1  0
 23 24  2  0
 24 25  1  0
 25 26  1  0
 24 27  1  0
 27 28  2  0
 28 29  1  0
 29 30  1  0
 28 31  1  0
 31 32  2  0
  8 33  1  0
 33 34  2  0
 34  5  1  0
 32  9  1  0
 21 15  1  0
 31 22  1  0
M  END
>  <Unnamed: 0>  (25) 
113

>  <atc_classifications>  (25) 
[]

>  <availability_type>  (25) 
-1

>  <biotherapeutic>  (25) 
nan

>  <black_box_warning>  (25) 
0

>  <chebi_par_id>  (25) 
nan

>  <chemical_probe>  (25) 
0

>  <chirality>  (25) 
-1

>  <cross_references>  (25) 
[]

>  <dosed_ingredient>  (25) 
False

>  <first_approval>  (25) 
nan

>  <first_in_class>  (25) 
-1

>  <helm_notation>  (25) 
nan

>  <indication_class>  (25) 
nan

>  <inorganic_flag>  (25) 
-1

>  <max_phase>  (25) 
nan

>  <molecule_hierarchy>  (25) 
{'active_chembl_id': 'CHEMBL4172225', 'molecule_chembl_id': 'CHEMBL4172225', 'parent_chembl_id': 'CHEMBL4172225'}

>  <molecule_properties>  (25) 
{'alogp': '5.96', 'aromatic_rings': 3, 'cx_logd': '3.63', 'cx_logp': '5.73', 'cx_most_apka': None, 'cx_most_bpka': '9.51', 'full_molformula': 'C28H36N2O4', 'full_mwt': '464.61', 'hba': 6, 'hba_lipinski': 6, 'hbd': 0, 'hbd_lipinski': 0, 'heavy_atoms': 34, 'molecular_species': 'BASE', 'mw_freebase': '464.61', 'mw_monoisotopic': '464.2675', 'np_likeness_score': '-0.82', 'num_lipinski_ro5_violations': 1, 'num_ro5_violations': 1, 'psa': '53.05', 'qed_weighted': '0.37', 'ro3_pass': 'N', 'rtb': 10}

>  <molecule_synonyms>  (25) 
[]

>  <molecule_type>  (25) 
Small molecule

>  <natural_product>  (25) 
0

>  <oral>  (25) 
False

>  <parenteral>  (25) 
False

>  <polymer_flag>  (25) 
0

>  <pref_name>  (25) 
nan

>  <prodrug>  (25) 
-1

>  <structure_type>  (25) 
MOL

>  <therapeutic_flag>  (25) 
False

>  <topical>  (25) 
False

>  <usan_stem>  (25) 
nan

>  <usan_stem_definition>  (25) 
nan

>  <usan_substem>  (25) 
nan

>  <usan_year>  (25) 
nan

>  <withdrawn_flag>  (25) 
False

>  <smiles>  (25) 
CCCOc1ccc(-c2cc(OCCN3CCCCCC3)c3cc(OC)cc(OC)c3n2)cc1

>  <cluster>  (25) 
2

$$$$
CHEMBL4172302
     RDKit          2D

 34 37  0  0  0  0  0  0  0  0999 V2000
    3.0000  -10.3923    0.0000 C   0  0  0  0  0  0  0  0  0  0  0  0
    3.7500   -9.0933    0.0000 C   0  0  0  0  0  0  0  0  0  0  0  0
    3.0000   -7.7942    0.0000 C   0  0  0  0  0  0  0  0  0  0  0  0
    3.7500   -6.4952    0.0000 O   0  0  0  0  0  0  0  0  0  0  0  0
    3.0000   -5.1962    0.0000 C   0  0  0  0  0  0  0  0  0  0  0  0
    1.5000   -5.1962    0.0000 C   0  0  0  0  0  0  0  0  0  0  0  0
    0.7500   -3.8971    0.0000 C   0  0  0  0  0  0  0  0  0  0  0  0
    1.5000   -2.5981    0.0000 C   0  0  0  0  0  0  0  0  0  0  0  0
    0.7500   -1.2990    0.0000 C   0  0  0  0  0  0  0  0  0  0  0  0
    1.5000    0.0000    0.0000 C   0  0  0  0  0  0  0  0  0  0  0  0
    0.7500    1.2990    0.0000 C   0  0  0  0  0  0  0  0  0  0  0  0
    1.5000    2.5981    0.0000 O   0  0  0  0  0  0  0  0  0  0  0  0
    3.0000    2.5981    0.0000 C   0  0  0  0  0  0  0  0  0  0  0  0
    3.7500    3.8971    0.0000 C   0  0  0  0  0  0  0  0  0  0  0  0
    5.2500    3.8971    0.0000 N   0  0  0  0  0  0  0  0  0  0  0  0
    5.9008    5.2486    0.0000 C   0  0  0  0  0  0  0  0  0  0  0  0
    7.3632    5.5823    0.0000 C   0  0  0  0  0  0  0  0  0  0  0  0
    8.5360    4.6471    0.0000 C   0  0  0  0  0  0  0  0  0  0  0  0
    8.5360    3.1471    0.0000 C   0  0  0  0  0  0  0  0  0  0  0  0
    7.3632    2.2119    0.0000 C   0  0  0  0  0  0  0  0  0  0  0  0
    5.9008    2.5457    0.0000 C   0  0  0  0  0  0  0  0  0  0  0  0
   -0.7500    1.2990    0.0000 C   0  0  0  0  0  0  0  0  0  0  0  0
   -1.5000    2.5981    0.0000 C   0  0  0  0  0  0  0  0  0  0  0  0
   -3.0000    2.5981    0.0000 C   0  0  0  0  0  0  0  0  0  0  0  0
   -3.7500    3.8971    0.0000 O   0  0  0  0  0  0  0  0  0  0  0  0
   -3.0000    5.1962    0.0000 C   0  0  0  0  0  0  0  0  0  0  0  0
   -3.7500    1.2990    0.0000 C   0  0  0  0  0  0  0  0  0  0  0  0
   -5.2500    1.2990    0.0000 O   0  0  0  0  0  0  0  0  0  0  0  0
   -6.0000    0.0000    0.0000 C   0  0  0  0  0  0  0  0  0  0  0  0
   -3.0000    0.0000    0.0000 C   0  0  0  0  0  0  0  0  0  0  0  0
   -1.5000    0.0000    0.0000 C   0  0  0  0  0  0  0  0  0  0  0  0
   -0.7500   -1.2990    0.0000 N   0  0  0  0  0  0  0  0  0  0  0  0
    3.0000   -2.5981    0.0000 C   0  0  0  0  0  0  0  0  0  0  0  0
    3.7500   -3.8971    0.0000 C   0  0  0  0  0  0  0  0  0  0  0  0
  1  2  1  0
  2  3  1  0
  3  4  1  0
  4  5  1  0
  5  6  2  0
  6  7  1  0
  7  8  2  0
  8  9  1  0
  9 10  2  0
 10 11  1  0
 11 12  1  0
 12 13  1  0
 13 14  1  0
 14 15  1  0
 15 16  1  0
 16 17  1  0
 17 18  1  0
 18 19  1  0
 19 20  1  0
 20 21  1  0
 11 22  2  0
 22 23  1  0
 23 24  2  0
 24 25  1  0
 25 26  1  0
 24 27  1  0
 27 28  1  0
 28 29  1  0
 27 30  2  0
 30 31  1  0
 31 32  2  0
  8 33  1  0
 33 34  2  0
 34  5  1  0
 32  9  1  0
 21 15  1  0
 31 22  1  0
M  END
>  <Unnamed: 0>  (26) 
114

>  <atc_classifications>  (26) 
[]

>  <availability_type>  (26) 
-1

>  <biotherapeutic>  (26) 
nan

>  <black_box_warning>  (26) 
0

>  <chebi_par_id>  (26) 
nan

>  <chemical_probe>  (26) 
0

>  <chirality>  (26) 
-1

>  <cross_references>  (26) 
[]

>  <dosed_ingredient>  (26) 
False

>  <first_approval>  (26) 
nan

>  <first_in_class>  (26) 
-1

>  <helm_notation>  (26) 
nan

>  <indication_class>  (26) 
nan

>  <inorganic_flag>  (26) 
-1

>  <max_phase>  (26) 
nan

>  <molecule_hierarchy>  (26) 
{'active_chembl_id': 'CHEMBL4172302', 'molecule_chembl_id': 'CHEMBL4172302', 'parent_chembl_id': 'CHEMBL4172302'}

>  <molecule_properties>  (26) 
{'alogp': '5.96', 'aromatic_rings': 3, 'cx_logd': '3.63', 'cx_logp': '5.73', 'cx_most_apka': None, 'cx_most_bpka': '9.50', 'full_molformula': 'C28H36N2O4', 'full_mwt': '464.61', 'hba': 6, 'hba_lipinski': 6, 'hbd': 0, 'hbd_lipinski': 0, 'heavy_atoms': 34, 'molecular_species': 'BASE', 'mw_freebase': '464.61', 'mw_monoisotopic': '464.2675', 'np_likeness_score': '-0.85', 'num_lipinski_ro5_violations': 1, 'num_ro5_violations': 1, 'psa': '53.05', 'qed_weighted': '0.37', 'ro3_pass': 'N', 'rtb': 10}

>  <molecule_synonyms>  (26) 
[]

>  <molecule_type>  (26) 
Small molecule

>  <natural_product>  (26) 
0

>  <oral>  (26) 
False

>  <parenteral>  (26) 
False

>  <polymer_flag>  (26) 
0

>  <pref_name>  (26) 
nan

>  <prodrug>  (26) 
-1

>  <structure_type>  (26) 
MOL

>  <therapeutic_flag>  (26) 
False

>  <topical>  (26) 
False

>  <usan_stem>  (26) 
nan

>  <usan_stem_definition>  (26) 
nan

>  <usan_substem>  (26) 
nan

>  <usan_year>  (26) 
nan

>  <withdrawn_flag>  (26) 
False

>  <smiles>  (26) 
CCCOc1ccc(-c2cc(OCCN3CCCCCC3)c3cc(OC)c(OC)cc3n2)cc1

>  <cluster>  (26) 
2

$$$$
CHEMBL4172372
     RDKit          2D

 30 32  0  0  0  0  0  0  0  0999 V2000
   -7.5000  -10.3923    0.0000 C   0  0  0  0  0  0  0  0  0  0  0  0
   -6.0000  -10.3923    0.0000 C   0  0  0  0  0  0  0  0  0  0  0  0
   -5.2500   -9.0933    0.0000 C   0  0  0  0  0  0  0  0  0  0  0  0
   -3.7500   -9.0933    0.0000 O   0  0  0  0  0  0  0  0  0  0  0  0
   -3.0000   -7.7942    0.0000 C   0  0  0  0  0  0  0  0  0  0  0  0
   -3.7500   -6.4952    0.0000 C   0  0  0  0  0  0  0  0  0  0  0  0
   -3.0000   -5.1962    0.0000 C   0  0  0  0  0  0  0  0  0  0  0  0
   -1.5000   -5.1962    0.0000 C   0  0  0  0  0  0  0  0  0  0  0  0
   -0.7500   -3.8971    0.0000 C   0  0  0  0  0  0  0  0  0  0  0  0
    0.7500   -3.8971    0.0000 C   0  0  0  0  0  0  0  0  0  0  0  0
    1.5000   -2.5981    0.0000 C   0  0  0  0  0  0  0  0  0  0  0  0
    3.0000   -2.5981    0.0000 O   0  0  0  0  0  0  0  0  0  0  0  0
    3.7500   -3.8971    0.0000 C   0  0  0  0  0  0  0  0  0  0  0  0
    5.2500   -3.8971    0.0000 C   0  0  0  0  0  0  0  0  0  0  0  0
    6.0000   -5.1962    0.0000 N   0  0  0  0  0  0  0  0  0  0  0  0
    7.5000   -5.1962    0.0000 C   0  0  0  0  0  0  0  0  0  0  0  0
    8.2500   -6.4952    0.0000 C   0  0  0  0  0  0  0  0  0  0  0  0
    5.2500   -6.4952    0.0000 C   0  0  0  0  0  0  0  0  0  0  0  0
    6.0000   -7.7942    0.0000 C   0  0  0  0  0  0  0  0  0  0  0  0
    0.7500   -1.2990    0.0000 C   0  0  0  0  0  0  0  0  0  0  0  0
    1.5000    0.0000    0.0000 C   0  0  0  0  0  0  0  0  0  0  0  0
    0.7500    1.2990    0.0000 C   0  0  0  0  0  0  0  0  0  0  0  0
   -0.7500    1.2990    0.0000 C   0  0  0  0  0  0  0  0  0  0  0  0
   -1.5000    2.5981    0.0000 O   0  0  0  0  0  0  0  0  0  0  0  0
   -0.7500    3.8971    0.0000 C   0  0  0  0  0  0  0  0  0  0  0  0
   -1.5000    0.0000    0.0000 C   0  0  0  0  0  0  0  0  0  0  0  0
   -0.7500   -1.2990    0.0000 C   0  0  0  0  0  0  0  0  0  0  0  0
   -1.5000   -2.5981    0.0000 N   0  0  0  0  0  0  0  0  0  0  0  0
   -0.7500   -6.4952    0.0000 C   0  0  0  0  0  0  0  0  0  0  0  0
   -1.5000   -7.7942    0.0000 C   0  0  0  0  0  0  0  0  0  0  0  0
  1  2  1  0
  2  3  1  0
  3  4  1  0
  4  5  1  0
  5  6  2  0
  6  7  1  0
  7  8  2  0
  8  9  1  0
  9 10  2  0
 10 11  1  0
 11 12  1  0
 12 13  1  0
 13 14  1  0
 14 15  1  0
 15 16  1  0
 16 17  1  0
 15 18  1  0
 18 19  1  0
 11 20  2  0
 20 21  1  0
 21 22  2  0
 22 23  1  0
 23 24  1  0
 24 25  1  0
 23 26  2  0
 26 27  1  0
 27 28  2  0
  8 29  1  0
 29 30  2  0
 30  5  1  0
 28  9  1  0
 27 20  1  0
M  END
>  <Unnamed: 0>  (27) 
115

>  <atc_classifications>  (27) 
[]

>  <availability_type>  (27) 
-1

>  <biotherapeutic>  (27) 
nan

>  <black_box_warning>  (27) 
0

>  <chebi_par_id>  (27) 
nan

>  <chemical_probe>  (27) 
0

>  <chirality>  (27) 
-1

>  <cross_references>  (27) 
[]

>  <dosed_ingredient>  (27) 
False

>  <first_approval>  (27) 
nan

>  <first_in_class>  (27) 
-1

>  <helm_notation>  (27) 
nan

>  <indication_class>  (27) 
nan

>  <inorganic_flag>  (27) 
-1

>  <max_phase>  (27) 
nan

>  <molecule_hierarchy>  (27) 
{'active_chembl_id': 'CHEMBL4172372', 'molecule_chembl_id': 'CHEMBL4172372', 'parent_chembl_id': 'CHEMBL4172372'}

>  <molecule_properties>  (27) 
{'alogp': '5.42', 'aromatic_rings': 3, 'cx_logd': '3.43', 'cx_logp': '5.30', 'cx_most_apka': None, 'cx_most_bpka': '9.27', 'full_molformula': 'C25H32N2O3', 'full_mwt': '408.54', 'hba': 5, 'hba_lipinski': 5, 'hbd': 0, 'hbd_lipinski': 0, 'heavy_atoms': 30, 'molecular_species': 'BASE', 'mw_freebase': '408.54', 'mw_monoisotopic': '408.2413', 'np_likeness_score': '-0.98', 'num_lipinski_ro5_violations': 1, 'num_ro5_violations': 1, 'psa': '43.82', 'qed_weighted': '0.42', 'ro3_pass': 'N', 'rtb': 11}

>  <molecule_synonyms>  (27) 
[]

>  <molecule_type>  (27) 
Small molecule

>  <natural_product>  (27) 
0

>  <oral>  (27) 
False

>  <parenteral>  (27) 
False

>  <polymer_flag>  (27) 
0

>  <pref_name>  (27) 
nan

>  <prodrug>  (27) 
-1

>  <structure_type>  (27) 
MOL

>  <therapeutic_flag>  (27) 
False

>  <topical>  (27) 
False

>  <usan_stem>  (27) 
nan

>  <usan_stem_definition>  (27) 
nan

>  <usan_substem>  (27) 
nan

>  <usan_year>  (27) 
nan

>  <withdrawn_flag>  (27) 
False

>  <smiles>  (27) 
CCCOc1ccc(-c2cc(OCCN(CC)CC)c3ccc(OC)cc3n2)cc1

>  <cluster>  (27) 
2

$$$$
CHEMBL4172633
     RDKit          2D

 32 35  0  0  0  0  0  0  0  0999 V2000
   -7.5000  -10.3923    0.0000 C   0  0  0  0  0  0  0  0  0  0  0  0
   -6.0000  -10.3923    0.0000 C   0  0  0  0  0  0  0  0  0  0  0  0
   -5.2500   -9.0933    0.0000 C   0  0  0  0  0  0  0  0  0  0  0  0
   -3.7500   -9.0933    0.0000 O   0  0  0  0  0  0  0  0  0  0  0  0
   -3.0000   -7.7942    0.0000 C   0  0  0  0  0  0  0  0  0  0  0  0
   -3.7500   -6.4952    0.0000 C   0  0  0  0  0  0  0  0  0  0  0  0
   -3.0000   -5.1962    0.0000 C   0  0  0  0  0  0  0  0  0  0  0  0
   -1.5000   -5.1962    0.0000 C   0  0  0  0  0  0  0  0  0  0  0  0
   -0.7500   -3.8971    0.0000 C   0  0  0  0  0  0  0  0  0  0  0  0
    0.7500   -3.8971    0.0000 C   0  0  0  0  0  0  0  0  0  0  0  0
    1.5000   -2.5981    0.0000 C   0  0  0  0  0  0  0  0  0  0  0  0
    3.0000   -2.5981    0.0000 O   0  0  0  0  0  0  0  0  0  0  0  0
    3.7500   -3.8971    0.0000 C   0  0  0  0  0  0  0  0  0  0  0  0
    5.2500   -3.8971    0.0000 C   0  0  0  0  0  0  0  0  0  0  0  0
    6.0000   -5.1962    0.0000 N   0  0  0  0  0  0  0  0  0  0  0  0
    7.4958   -5.0841    0.0000 C   0  0  0  0  0  0  0  0  0  0  0  0
    8.5161   -6.1836    0.0000 C   0  0  0  0  0  0  0  0  0  0  0  0
    8.2925   -7.6669    0.0000 C   0  0  0  0  0  0  0  0  0  0  0  0
    6.9935   -8.4169    0.0000 C   0  0  0  0  0  0  0  0  0  0  0  0
    5.5972   -7.8689    0.0000 C   0  0  0  0  0  0  0  0  0  0  0  0
    5.1550   -6.4355    0.0000 C   0  0  0  0  0  0  0  0  0  0  0  0
    0.7500   -1.2990    0.0000 C   0  0  0  0  0  0  0  0  0  0  0  0
    1.5000    0.0000    0.0000 C   0  0  0  0  0  0  0  0  0  0  0  0
    3.0000    0.0000    0.0000 O   0  0  0  0  0  0  0  0  0  0  0  0
    3.7500    1.2990    0.0000 C   0  0  0  0  0  0  0  0  0  0  0  0
    0.7500    1.2990    0.0000 C   0  0  0  0  0  0  0  0  0  0  0  0
   -0.7500    1.2990    0.0000 C   0  0  0  0  0  0  0  0  0  0  0  0
   -1.5000    0.0000    0.0000 C   0  0  0  0  0  0  0  0  0  0  0  0
   -0.7500   -1.2990    0.0000 C   0  0  0  0  0  0  0  0  0  0  0  0
   -1.5000   -2.5981    0.0000 N   0  0  0  0  0  0  0  0  0  0  0  0
   -0.7500   -6.4952    0.0000 C   0  0  0  0  0  0  0  0  0  0  0  0
   -1.5000   -7.7942    0.0000 C   0  0  0  0  0  0  0  0  0  0  0  0
  1  2  1  0
  2  3  1  0
  3  4  1  0
  4  5  1  0
  5  6  2  0
  6  7  1  0
  7  8  2  0
  8  9  1  0
  9 10  2  0
 10 11  1  0
 11 12  1  0
 12 13  1  0
 13 14  1  0
 14 15  1  0
 15 16  1  0
 16 17  1  0
 17 18  1  0
 18 19  1  0
 19 20  1  0
 20 21  1  0
 11 22  2  0
 22 23  1  0
 23 24  1  0
 24 25  1  0
 23 26  2  0
 26 27  1  0
 27 28  2  0
 28 29  1  0
 29 30  2  0
  8 31  1  0
 31 32  2  0
 32  5  1  0
 30  9  1  0
 21 15  1  0
 29 22  1  0
M  END
>  <Unnamed: 0>  (28) 
116

>  <atc_classifications>  (28) 
[]

>  <availability_type>  (28) 
-1

>  <biotherapeutic>  (28) 
nan

>  <black_box_warning>  (28) 
0

>  <chebi_par_id>  (28) 
nan

>  <chemical_probe>  (28) 
0

>  <chirality>  (28) 
-1

>  <cross_references>  (28) 
[]

>  <dosed_ingredient>  (28) 
False

>  <first_approval>  (28) 
nan

>  <first_in_class>  (28) 
-1

>  <helm_notation>  (28) 
nan

>  <indication_class>  (28) 
nan

>  <inorganic_flag>  (28) 
-1

>  <max_phase>  (28) 
nan

>  <molecule_hierarchy>  (28) 
{'active_chembl_id': 'CHEMBL4172633', 'molecule_chembl_id': 'CHEMBL4172633', 'parent_chembl_id': 'CHEMBL4172633'}

>  <molecule_properties>  (28) 
{'alogp': '5.95', 'aromatic_rings': 3, 'cx_logd': '3.83', 'cx_logp': '5.88', 'cx_most_apka': None, 'cx_most_bpka': '9.45', 'full_molformula': 'C27H34N2O3', 'full_mwt': '434.58', 'hba': 5, 'hba_lipinski': 5, 'hbd': 0, 'hbd_lipinski': 0, 'heavy_atoms': 32, 'molecular_species': 'BASE', 'mw_freebase': '434.58', 'mw_monoisotopic': '434.2569', 'np_likeness_score': '-0.90', 'num_lipinski_ro5_violations': 1, 'num_ro5_violations': 1, 'psa': '43.82', 'qed_weighted': '0.42', 'ro3_pass': 'N', 'rtb': 9}

>  <molecule_synonyms>  (28) 
[]

>  <molecule_type>  (28) 
Small molecule

>  <natural_product>  (28) 
0

>  <oral>  (28) 
False

>  <parenteral>  (28) 
False

>  <polymer_flag>  (28) 
0

>  <pref_name>  (28) 
nan

>  <prodrug>  (28) 
-1

>  <structure_type>  (28) 
MOL

>  <therapeutic_flag>  (28) 
False

>  <topical>  (28) 
False

>  <usan_stem>  (28) 
nan

>  <usan_stem_definition>  (28) 
nan

>  <usan_substem>  (28) 
nan

>  <usan_year>  (28) 
nan

>  <withdrawn_flag>  (28) 
False

>  <smiles>  (28) 
CCCOc1ccc(-c2cc(OCCN3CCCCCC3)c3c(OC)cccc3n2)cc1

>  <cluster>  (28) 
2

$$$$
CHEMBL4172781
     RDKit          2D

 31 34  0  0  0  0  0  0  0  0999 V2000
   -7.5000  -10.3923    0.0000 C   0  0  0  0  0  0  0  0  0  0  0  0
   -6.0000  -10.3923    0.0000 C   0  0  0  0  0  0  0  0  0  0  0  0
   -5.2500   -9.0933    0.0000 C   0  0  0  0  0  0  0  0  0  0  0  0
   -3.7500   -9.0933    0.0000 O   0  0  0  0  0  0  0  0  0  0  0  0
   -3.0000   -7.7942    0.0000 C   0  0  0  0  0  0  0  0  0  0  0  0
   -3.7500   -6.4952    0.0000 C   0  0  0  0  0  0  0  0  0  0  0  0
   -3.0000   -5.1962    0.0000 C   0  0  0  0  0  0  0  0  0  0  0  0
   -1.5000   -5.1962    0.0000 C   0  0  0  0  0  0  0  0  0  0  0  0
   -0.7500   -3.8971    0.0000 C   0  0  0  0  0  0  0  0  0  0  0  0
    0.7500   -3.8971    0.0000 C   0  0  0  0  0  0  0  0  0  0  0  0
    1.5000   -2.5981    0.0000 C   0  0  0  0  0  0  0  0  0  0  0  0
    3.0000   -2.5981    0.0000 O   0  0  0  0  0  0  0  0  0  0  0  0
    3.7500   -3.8971    0.0000 C   0  0  0  0  0  0  0  0  0  0  0  0
    5.2500   -3.8971    0.0000 C   0  0  0  0  0  0  0  0  0  0  0  0
    6.0000   -5.1962    0.0000 N   0  0  0  0  0  0  0  0  0  0  0  0
    5.2500   -6.4952    0.0000 C   0  0  0  0  0  0  0  0  0  0  0  0
    6.0000   -7.7942    0.0000 C   0  0  0  0  0  0  0  0  0  0  0  0
    7.5000   -7.7942    0.0000 N   0  0  0  0  0  0  0  0  0  0  0  0
    8.2500   -6.4952    0.0000 C   0  0  0  0  0  0  0  0  0  0  0  0
    7.5000   -5.1962    0.0000 C   0  0  0  0  0  0  0  0  0  0  0  0
    0.7500   -1.2990    0.0000 C   0  0  0  0  0  0  0  0  0  0  0  0
    1.5000    0.0000    0.0000 C   0  0  0  0  0  0  0  0  0  0  0  0
    0.7500    1.2990    0.0000 C   0  0  0  0  0  0  0  0  0  0  0  0
   -0.7500    1.2990    0.0000 C   0  0  0  0  0  0  0  0  0  0  0  0
   -1.5000    2.5981    0.0000 O   0  0  0  0  0  0  0  0  0  0  0  0
   -0.7500    3.8971    0.0000 C   0  0  0  0  0  0  0  0  0  0  0  0
   -1.5000    0.0000    0.0000 C   0  0  0  0  0  0  0  0  0  0  0  0
   -0.7500   -1.2990    0.0000 C   0  0  0  0  0  0  0  0  0  0  0  0
   -1.5000   -2.5981    0.0000 N   0  0  0  0  0  0  0  0  0  0  0  0
   -0.7500   -6.4952    0.0000 C   0  0  0  0  0  0  0  0  0  0  0  0
   -1.5000   -7.7942    0.0000 C   0  0  0  0  0  0  0  0  0  0  0  0
  1  2  1  0
  2  3  1  0
  3  4  1  0
  4  5  1  0
  5  6  2  0
  6  7  1  0
  7  8  2  0
  8  9  1  0
  9 10  2  0
 10 11  1  0
 11 12  1  0
 12 13  1  0
 13 14  1  0
 14 15  1  0
 15 16  1  0
 16 17  1  0
 17 18  1  0
 18 19  1  0
 19 20  1  0
 11 21  2  0
 21 22  1  0
 22 23  2  0
 23 24  1  0
 24 25  1  0
 25 26  1  0
 24 27  2  0
 27 28  1  0
 28 29  2  0
  8 30  1  0
 30 31  2  0
 31  5  1  0
 29  9  1  0
 20 15  1  0
 28 21  1  0
M  END
>  <Unnamed: 0>  (29) 
117

>  <atc_classifications>  (29) 
[]

>  <availability_type>  (29) 
-1

>  <biotherapeutic>  (29) 
nan

>  <black_box_warning>  (29) 
0

>  <chebi_par_id>  (29) 
nan

>  <chemical_probe>  (29) 
0

>  <chirality>  (29) 
-1

>  <cross_references>  (29) 
[]

>  <dosed_ingredient>  (29) 
False

>  <first_approval>  (29) 
nan

>  <first_in_class>  (29) 
-1

>  <helm_notation>  (29) 
nan

>  <indication_class>  (29) 
nan

>  <inorganic_flag>  (29) 
-1

>  <max_phase>  (29) 
nan

>  <molecule_hierarchy>  (29) 
{'active_chembl_id': 'CHEMBL4172781', 'molecule_chembl_id': 'CHEMBL4172781', 'parent_chembl_id': 'CHEMBL4172781'}

>  <molecule_properties>  (29) 
{'alogp': '3.98', 'aromatic_rings': 3, 'cx_logd': '2.22', 'cx_logp': '4.05', 'cx_most_apka': None, 'cx_most_bpka': '9.24', 'full_molformula': 'C25H31N3O3', 'full_mwt': '421.54', 'hba': 6, 'hba_lipinski': 6, 'hbd': 1, 'hbd_lipinski': 1, 'heavy_atoms': 31, 'molecular_species': 'BASE', 'mw_freebase': '421.54', 'mw_monoisotopic': '421.2365', 'np_likeness_score': '-0.93', 'num_lipinski_ro5_violations': 0, 'num_ro5_violations': 0, 'psa': '55.85', 'qed_weighted': '0.56', 'ro3_pass': 'N', 'rtb': 9}

>  <molecule_synonyms>  (29) 
[]

>  <molecule_type>  (29) 
Small molecule

>  <natural_product>  (29) 
0

>  <oral>  (29) 
False

>  <parenteral>  (29) 
False

>  <polymer_flag>  (29) 
0

>  <pref_name>  (29) 
nan

>  <prodrug>  (29) 
-1

>  <structure_type>  (29) 
MOL

>  <therapeutic_flag>  (29) 
False

>  <topical>  (29) 
False

>  <usan_stem>  (29) 
nan

>  <usan_stem_definition>  (29) 
nan

>  <usan_substem>  (29) 
nan

>  <usan_year>  (29) 
nan

>  <withdrawn_flag>  (29) 
False

>  <smiles>  (29) 
CCCOc1ccc(-c2cc(OCCN3CCNCC3)c3ccc(OC)cc3n2)cc1

>  <cluster>  (29) 
2

$$$$
CHEMBL4173506
     RDKit          2D

 29 31  0  0  0  0  0  0  0  0999 V2000
   -7.5000  -10.3923    0.0000 C   0  0  0  0  0  0  0  0  0  0  0  0
   -6.0000  -10.3923    0.0000 C   0  0  0  0  0  0  0  0  0  0  0  0
   -5.2500   -9.0933    0.0000 C   0  0  0  0  0  0  0  0  0  0  0  0
   -3.7500   -9.0933    0.0000 O   0  0  0  0  0  0  0  0  0  0  0  0
   -3.0000   -7.7942    0.0000 C   0  0  0  0  0  0  0  0  0  0  0  0
   -3.7500   -6.4952    0.0000 C   0  0  0  0  0  0  0  0  0  0  0  0
   -3.0000   -5.1962    0.0000 C   0  0  0  0  0  0  0  0  0  0  0  0
   -1.5000   -5.1962    0.0000 C   0  0  0  0  0  0  0  0  0  0  0  0
   -0.7500   -3.8971    0.0000 C   0  0  0  0  0  0  0  0  0  0  0  0
    0.7500   -3.8971    0.0000 C   0  0  0  0  0  0  0  0  0  0  0  0
    1.5000   -2.5981    0.0000 C   0  0  0  0  0  0  0  0  0  0  0  0
    3.0000   -2.5981    0.0000 O   0  0  0  0  0  0  0  0  0  0  0  0
    3.7500   -3.8971    0.0000 C   0  0  0  0  0  0  0  0  0  0  0  0
    5.2500   -3.8971    0.0000 C   0  0  0  0  0  0  0  0  0  0  0  0
    6.0000   -5.1962    0.0000 C   0  0  0  0  0  0  0  0  0  0  0  0
    7.5000   -5.1962    0.0000 N   0  0  0  0  0  0  0  0  0  0  0  0
    8.2500   -6.4952    0.0000 C   0  0  0  0  0  0  0  0  0  0  0  0
    8.2500   -3.8971    0.0000 C   0  0  0  0  0  0  0  0  0  0  0  0
    0.7500   -1.2990    0.0000 C   0  0  0  0  0  0  0  0  0  0  0  0
    1.5000    0.0000    0.0000 C   0  0  0  0  0  0  0  0  0  0  0  0
    0.7500    1.2990    0.0000 C   0  0  0  0  0  0  0  0  0  0  0  0
    1.5000    2.5981    0.0000 O   0  0  0  0  0  0  0  0  0  0  0  0
    3.0000    2.5981    0.0000 C   0  0  0  0  0  0  0  0  0  0  0  0
   -0.7500    1.2990    0.0000 C   0  0  0  0  0  0  0  0  0  0  0  0
   -1.5000    0.0000    0.0000 C   0  0  0  0  0  0  0  0  0  0  0  0
   -0.7500   -1.2990    0.0000 C   0  0  0  0  0  0  0  0  0  0  0  0
   -1.5000   -2.5981    0.0000 N   0  0  0  0  0  0  0  0  0  0  0  0
   -0.7500   -6.4952    0.0000 C   0  0  0  0  0  0  0  0  0  0  0  0
   -1.5000   -7.7942    0.0000 C   0  0  0  0  0  0  0  0  0  0  0  0
  1  2  1  0
  2  3  1  0
  3  4  1  0
  4  5  1  0
  5  6  2  0
  6  7  1  0
  7  8  2  0
  8  9  1  0
  9 10  2  0
 10 11  1  0
 11 12  1  0
 12 13  1  0
 13 14  1  0
 14 15  1  0
 15 16  1  0
 16 17  1  0
 16 18  1  0
 11 19  2  0
 19 20  1  0
 20 21  2  0
 21 22  1  0
 22 23  1  0
 21 24  1  0
 24 25  2  0
 25 26  1  0
 26 27  2  0
  8 28  1  0
 28 29  2  0
 29  5  1  0
 27  9  1  0
 26 19  1  0
M  END
>  <Unnamed: 0>  (30) 
118

>  <atc_classifications>  (30) 
[]

>  <availability_type>  (30) 
-1

>  <biotherapeutic>  (30) 
nan

>  <black_box_warning>  (30) 
0

>  <chebi_par_id>  (30) 
nan

>  <chemical_probe>  (30) 
0

>  <chirality>  (30) 
-1

>  <cross_references>  (30) 
[]

>  <dosed_ingredient>  (30) 
False

>  <first_approval>  (30) 
nan

>  <first_in_class>  (30) 
-1

>  <helm_notation>  (30) 
nan

>  <indication_class>  (30) 
nan

>  <inorganic_flag>  (30) 
-1

>  <max_phase>  (30) 
nan

>  <molecule_hierarchy>  (30) 
{'active_chembl_id': 'CHEMBL4173506', 'molecule_chembl_id': 'CHEMBL4173506', 'parent_chembl_id': 'CHEMBL4173506'}

>  <molecule_properties>  (30) 
{'alogp': '5.03', 'aromatic_rings': 3, 'cx_logd': '2.79', 'cx_logp': '4.65', 'cx_most_apka': None, 'cx_most_bpka': '9.26', 'full_molformula': 'C24H30N2O3', 'full_mwt': '394.52', 'hba': 5, 'hba_lipinski': 5, 'hbd': 0, 'hbd_lipinski': 0, 'heavy_atoms': 29, 'molecular_species': 'BASE', 'mw_freebase': '394.52', 'mw_monoisotopic': '394.2256', 'np_likeness_score': '-0.86', 'num_lipinski_ro5_violations': 1, 'num_ro5_violations': 1, 'psa': '43.82', 'qed_weighted': '0.45', 'ro3_pass': 'N', 'rtb': 10}

>  <molecule_synonyms>  (30) 
[]

>  <molecule_type>  (30) 
Small molecule

>  <natural_product>  (30) 
0

>  <oral>  (30) 
False

>  <parenteral>  (30) 
False

>  <polymer_flag>  (30) 
0

>  <pref_name>  (30) 
nan

>  <prodrug>  (30) 
-1

>  <structure_type>  (30) 
MOL

>  <therapeutic_flag>  (30) 
False

>  <topical>  (30) 
False

>  <usan_stem>  (30) 
nan

>  <usan_stem_definition>  (30) 
nan

>  <usan_substem>  (30) 
nan

>  <usan_year>  (30) 
nan

>  <withdrawn_flag>  (30) 
False

>  <smiles>  (30) 
CCCOc1ccc(-c2cc(OCCCN(C)C)c3cc(OC)ccc3n2)cc1

>  <cluster>  (30) 
2

$$$$
CHEMBL4175717
     RDKit          2D

 32 34  0  0  0  0  0  0  0  0999 V2000
    3.0000  -10.3923    0.0000 C   0  0  0  0  0  0  0  0  0  0  0  0
    3.7500   -9.0933    0.0000 C   0  0  0  0  0  0  0  0  0  0  0  0
    3.0000   -7.7942    0.0000 C   0  0  0  0  0  0  0  0  0  0  0  0
    3.7500   -6.4952    0.0000 O   0  0  0  0  0  0  0  0  0  0  0  0
    3.0000   -5.1962    0.0000 C   0  0  0  0  0  0  0  0  0  0  0  0
    1.5000   -5.1962    0.0000 C   0  0  0  0  0  0  0  0  0  0  0  0
    0.7500   -3.8971    0.0000 C   0  0  0  0  0  0  0  0  0  0  0  0
    1.5000   -2.5981    0.0000 C   0  0  0  0  0  0  0  0  0  0  0  0
    0.7500   -1.2990    0.0000 C   0  0  0  0  0  0  0  0  0  0  0  0
    1.5000    0.0000    0.0000 C   0  0  0  0  0  0  0  0  0  0  0  0
    0.7500    1.2990    0.0000 C   0  0  0  0  0  0  0  0  0  0  0  0
    1.5000    2.5981    0.0000 O   0  0  0  0  0  0  0  0  0  0  0  0
    3.0000    2.5981    0.0000 C   0  0  0  0  0  0  0  0  0  0  0  0
    3.7500    3.8971    0.0000 C   0  0  0  0  0  0  0  0  0  0  0  0
    5.2500    3.8971    0.0000 N   0  0  0  0  0  0  0  0  0  0  0  0
    6.0000    5.1962    0.0000 C   0  0  0  0  0  0  0  0  0  0  0  0
    7.5000    5.1962    0.0000 C   0  0  0  0  0  0  0  0  0  0  0  0
    6.0000    2.5981    0.0000 C   0  0  0  0  0  0  0  0  0  0  0  0
    7.5000    2.5981    0.0000 C   0  0  0  0  0  0  0  0  0  0  0  0
   -0.7500    1.2990    0.0000 C   0  0  0  0  0  0  0  0  0  0  0  0
   -1.5000    2.5981    0.0000 C   0  0  0  0  0  0  0  0  0  0  0  0
   -3.0000    2.5981    0.0000 C   0  0  0  0  0  0  0  0  0  0  0  0
   -3.7500    3.8971    0.0000 O   0  0  0  0  0  0  0  0  0  0  0  0
   -3.0000    5.1962    0.0000 C   0  0  0  0  0  0  0  0  0  0  0  0
   -3.7500    1.2990    0.0000 C   0  0  0  0  0  0  0  0  0  0  0  0
   -5.2500    1.2990    0.0000 O   0  0  0  0  0  0  0  0  0  0  0  0
   -6.0000    0.0000    0.0000 C   0  0  0  0  0  0  0  0  0  0  0  0
   -3.0000    0.0000    0.0000 C   0  0  0  0  0  0  0  0  0  0  0  0
   -1.5000    0.0000    0.0000 C   0  0  0  0  0  0  0  0  0  0  0  0
   -0.7500   -1.2990    0.0000 N   0  0  0  0  0  0  0  0  0  0  0  0
    3.0000   -2.5981    0.0000 C   0  0  0  0  0  0  0  0  0  0  0  0
    3.7500   -3.8971    0.0000 C   0  0  0  0  0  0  0  0  0  0  0  0
  1  2  1  0
  2  3  1  0
  3  4  1  0
  4  5  1  0
  5  6  2  0
  6  7  1  0
  7  8  2  0
  8  9  1  0
  9 10  2  0
 10 11  1  0
 11 12  1  0
 12 13  1  0
 13 14  1  0
 14 15  1  0
 15 16  1  0
 16 17  1  0
 15 18  1  0
 18 19  1  0
 11 20  2  0
 20 21  1  0
 21 22  2  0
 22 23  1  0
 23 24  1  0
 22 25  1  0
 25 26  1  0
 26 27  1  0
 25 28  2  0
 28 29  1  0
 29 30  2  0
  8 31  1  0
 31 32  2  0
 32  5  1  0
 30  9  1  0
 29 20  1  0
M  END
>  <Unnamed: 0>  (31) 
121

>  <atc_classifications>  (31) 
[]

>  <availability_type>  (31) 
-1

>  <biotherapeutic>  (31) 
nan

>  <black_box_warning>  (31) 
0

>  <chebi_par_id>  (31) 
nan

>  <chemical_probe>  (31) 
0

>  <chirality>  (31) 
-1

>  <cross_references>  (31) 
[]

>  <dosed_ingredient>  (31) 
False

>  <first_approval>  (31) 
nan

>  <first_in_class>  (31) 
-1

>  <helm_notation>  (31) 
nan

>  <indication_class>  (31) 
nan

>  <inorganic_flag>  (31) 
-1

>  <max_phase>  (31) 
nan

>  <molecule_hierarchy>  (31) 
{'active_chembl_id': 'CHEMBL4175717', 'molecule_chembl_id': 'CHEMBL4175717', 'parent_chembl_id': 'CHEMBL4175717'}

>  <molecule_properties>  (31) 
{'alogp': '5.43', 'aromatic_rings': 3, 'cx_logd': '3.25', 'cx_logp': '5.14', 'cx_most_apka': None, 'cx_most_bpka': '9.28', 'full_molformula': 'C26H34N2O4', 'full_mwt': '438.57', 'hba': 6, 'hba_lipinski': 6, 'hbd': 0, 'hbd_lipinski': 0, 'heavy_atoms': 32, 'molecular_species': 'BASE', 'mw_freebase': '438.57', 'mw_monoisotopic': '438.2519', 'np_likeness_score': '-0.89', 'num_lipinski_ro5_violations': 1, 'num_ro5_violations': 1, 'psa': '53.05', 'qed_weighted': '0.38', 'ro3_pass': 'N', 'rtb': 12}

>  <molecule_synonyms>  (31) 
[]

>  <molecule_type>  (31) 
Small molecule

>  <natural_product>  (31) 
0

>  <oral>  (31) 
False

>  <parenteral>  (31) 
False

>  <polymer_flag>  (31) 
0

>  <pref_name>  (31) 
nan

>  <prodrug>  (31) 
-1

>  <structure_type>  (31) 
MOL

>  <therapeutic_flag>  (31) 
False

>  <topical>  (31) 
False

>  <usan_stem>  (31) 
nan

>  <usan_stem_definition>  (31) 
nan

>  <usan_substem>  (31) 
nan

>  <usan_year>  (31) 
nan

>  <withdrawn_flag>  (31) 
False

>  <smiles>  (31) 
CCCOc1ccc(-c2cc(OCCN(CC)CC)c3cc(OC)c(OC)cc3n2)cc1

>  <cluster>  (31) 
2

$$$$
CHEMBL4176162
     RDKit          2D

 29 31  0  0  0  0  0  0  0  0999 V2000
   -7.5000  -10.3923    0.0000 C   0  0  0  0  0  0  0  0  0  0  0  0
   -6.0000  -10.3923    0.0000 C   0  0  0  0  0  0  0  0  0  0  0  0
   -5.2500   -9.0933    0.0000 C   0  0  0  0  0  0  0  0  0  0  0  0
   -3.7500   -9.0933    0.0000 O   0  0  0  0  0  0  0  0  0  0  0  0
   -3.0000   -7.7942    0.0000 C   0  0  0  0  0  0  0  0  0  0  0  0
   -3.7500   -6.4952    0.0000 C   0  0  0  0  0  0  0  0  0  0  0  0
   -3.0000   -5.1962    0.0000 C   0  0  0  0  0  0  0  0  0  0  0  0
   -1.5000   -5.1962    0.0000 C   0  0  0  0  0  0  0  0  0  0  0  0
   -0.7500   -3.8971    0.0000 C   0  0  0  0  0  0  0  0  0  0  0  0
    0.7500   -3.8971    0.0000 C   0  0  0  0  0  0  0  0  0  0  0  0
    1.5000   -2.5981    0.0000 C   0  0  0  0  0  0  0  0  0  0  0  0
    3.0000   -2.5981    0.0000 O   0  0  0  0  0  0  0  0  0  0  0  0
    3.7500   -3.8971    0.0000 C   0  0  0  0  0  0  0  0  0  0  0  0
    5.2500   -3.8971    0.0000 C   0  0  0  0  0  0  0  0  0  0  0  0
    6.0000   -5.1962    0.0000 C   0  0  0  0  0  0  0  0  0  0  0  0
    7.5000   -5.1962    0.0000 N   0  0  0  0  0  0  0  0  0  0  0  0
    8.2500   -6.4952    0.0000 C   0  0  0  0  0  0  0  0  0  0  0  0
    8.2500   -3.8971    0.0000 C   0  0  0  0  0  0  0  0  0  0  0  0
    0.7500   -1.2990    0.0000 C   0  0  0  0  0  0  0  0  0  0  0  0
    1.5000    0.0000    0.0000 C   0  0  0  0  0  0  0  0  0  0  0  0
    0.7500    1.2990    0.0000 C   0  0  0  0  0  0  0  0  0  0  0  0
   -0.7500    1.2990    0.0000 C   0  0  0  0  0  0  0  0  0  0  0  0
   -1.5000    2.5981    0.0000 O   0  0  0  0  0  0  0  0  0  0  0  0
   -0.7500    3.8971    0.0000 C   0  0  0  0  0  0  0  0  0  0  0  0
   -1.5000    0.0000    0.0000 C   0  0  0  0  0  0  0  0  0  0  0  0
   -0.7500   -1.2990    0.0000 C   0  0  0  0  0  0  0  0  0  0  0  0
   -1.5000   -2.5981    0.0000 N   0  0  0  0  0  0  0  0  0  0  0  0
   -0.7500   -6.4952    0.0000 C   0  0  0  0  0  0  0  0  0  0  0  0
   -1.5000   -7.7942    0.0000 C   0  0  0  0  0  0  0  0  0  0  0  0
  1  2  1  0
  2  3  1  0
  3  4  1  0
  4  5  1  0
  5  6  2  0
  6  7  1  0
  7  8  2  0
  8  9  1  0
  9 10  2  0
 10 11  1  0
 11 12  1  0
 12 13  1  0
 13 14  1  0
 14 15  1  0
 15 16  1  0
 16 17  1  0
 16 18  1  0
 11 19  2  0
 19 20  1  0
 20 21  2  0
 21 22  1  0
 22 23  1  0
 23 24  1  0
 22 25  2  0
 25 26  1  0
 26 27  2  0
  8 28  1  0
 28 29  2  0
 29  5  1  0
 27  9  1  0
 26 19  1  0
M  END
>  <Unnamed: 0>  (32) 
122

>  <atc_classifications>  (32) 
[]

>  <availability_type>  (32) 
-1

>  <biotherapeutic>  (32) 
nan

>  <black_box_warning>  (32) 
0

>  <chebi_par_id>  (32) 
nan

>  <chemical_probe>  (32) 
0

>  <chirality>  (32) 
-1

>  <cross_references>  (32) 
[]

>  <dosed_ingredient>  (32) 
False

>  <first_approval>  (32) 
nan

>  <first_in_class>  (32) 
-1

>  <helm_notation>  (32) 
nan

>  <indication_class>  (32) 
nan

>  <inorganic_flag>  (32) 
-1

>  <max_phase>  (32) 
nan

>  <molecule_hierarchy>  (32) 
{'active_chembl_id': 'CHEMBL4176162', 'molecule_chembl_id': 'CHEMBL4176162', 'parent_chembl_id': 'CHEMBL4176162'}

>  <molecule_properties>  (32) 
{'alogp': '5.03', 'aromatic_rings': 3, 'cx_logd': '2.79', 'cx_logp': '4.65', 'cx_most_apka': None, 'cx_most_bpka': '9.26', 'full_molformula': 'C24H30N2O3', 'full_mwt': '394.52', 'hba': 5, 'hba_lipinski': 5, 'hbd': 0, 'hbd_lipinski': 0, 'heavy_atoms': 29, 'molecular_species': 'BASE', 'mw_freebase': '394.52', 'mw_monoisotopic': '394.2256', 'np_likeness_score': '-0.81', 'num_lipinski_ro5_violations': 1, 'num_ro5_violations': 1, 'psa': '43.82', 'qed_weighted': '0.45', 'ro3_pass': 'N', 'rtb': 10}

>  <molecule_synonyms>  (32) 
[]

>  <molecule_type>  (32) 
Small molecule

>  <natural_product>  (32) 
0

>  <oral>  (32) 
False

>  <parenteral>  (32) 
False

>  <polymer_flag>  (32) 
0

>  <pref_name>  (32) 
nan

>  <prodrug>  (32) 
-1

>  <structure_type>  (32) 
MOL

>  <therapeutic_flag>  (32) 
False

>  <topical>  (32) 
False

>  <usan_stem>  (32) 
nan

>  <usan_stem_definition>  (32) 
nan

>  <usan_substem>  (32) 
nan

>  <usan_year>  (32) 
nan

>  <withdrawn_flag>  (32) 
False

>  <smiles>  (32) 
CCCOc1ccc(-c2cc(OCCCN(C)C)c3ccc(OC)cc3n2)cc1

>  <cluster>  (32) 
2

$$$$
CHEMBL4176571
     RDKit          2D

 29 31  0  0  0  0  0  0  0  0999 V2000
   -7.5000  -10.3923    0.0000 C   0  0  0  0  0  0  0  0  0  0  0  0
   -6.0000  -10.3923    0.0000 C   0  0  0  0  0  0  0  0  0  0  0  0
   -5.2500   -9.0933    0.0000 C   0  0  0  0  0  0  0  0  0  0  0  0
   -3.7500   -9.0933    0.0000 O   0  0  0  0  0  0  0  0  0  0  0  0
   -3.0000   -7.7942    0.0000 C   0  0  0  0  0  0  0  0  0  0  0  0
   -3.7500   -6.4952    0.0000 C   0  0  0  0  0  0  0  0  0  0  0  0
   -3.0000   -5.1962    0.0000 C   0  0  0  0  0  0  0  0  0  0  0  0
   -1.5000   -5.1962    0.0000 C   0  0  0  0  0  0  0  0  0  0  0  0
   -0.7500   -3.8971    0.0000 C   0  0  0  0  0  0  0  0  0  0  0  0
    0.7500   -3.8971    0.0000 C   0  0  0  0  0  0  0  0  0  0  0  0
    1.5000   -2.5981    0.0000 C   0  0  0  0  0  0  0  0  0  0  0  0
    3.0000   -2.5981    0.0000 O   0  0  0  0  0  0  0  0  0  0  0  0
    3.7500   -3.8971    0.0000 C   0  0  0  0  0  0  0  0  0  0  0  0
    5.2500   -3.8971    0.0000 C   0  0  0  0  0  0  0  0  0  0  0  0
    6.0000   -5.1962    0.0000 C   0  0  0  0  0  0  0  0  0  0  0  0
    7.5000   -5.1962    0.0000 N   0  0  0  0  0  0  0  0  0  0  0  0
    8.2500   -6.4952    0.0000 C   0  0  0  0  0  0  0  0  0  0  0  0
    8.2500   -3.8971    0.0000 C   0  0  0  0  0  0  0  0  0  0  0  0
    0.7500   -1.2990    0.0000 C   0  0  0  0  0  0  0  0  0  0  0  0
    1.5000    0.0000    0.0000 C   0  0  0  0  0  0  0  0  0  0  0  0
    0.7500    1.2990    0.0000 C   0  0  0  0  0  0  0  0  0  0  0  0
   -0.7500    1.2990    0.0000 C   0  0  0  0  0  0  0  0  0  0  0  0
   -1.5000    0.0000    0.0000 C   0  0  0  0  0  0  0  0  0  0  0  0
   -3.0000    0.0000    0.0000 O   0  0  0  0  0  0  0  0  0  0  0  0
   -3.7500    1.2990    0.0000 C   0  0  0  0  0  0  0  0  0  0  0  0
   -0.7500   -1.2990    0.0000 C   0  0  0  0  0  0  0  0  0  0  0  0
   -1.5000   -2.5981    0.0000 N   0  0  0  0  0  0  0  0  0  0  0  0
   -0.7500   -6.4952    0.0000 C   0  0  0  0  0  0  0  0  0  0  0  0
   -1.5000   -7.7942    0.0000 C   0  0  0  0  0  0  0  0  0  0  0  0
  1  2  1  0
  2  3  1  0
  3  4  1  0
  4  5  1  0
  5  6  2  0
  6  7  1  0
  7  8  2  0
  8  9  1  0
  9 10  2  0
 10 11  1  0
 11 12  1  0
 12 13  1  0
 13 14  1  0
 14 15  1  0
 15 16  1  0
 16 17  1  0
 16 18  1  0
 11 19  2  0
 19 20  1  0
 20 21  2  0
 21 22  1  0
 22 23  2  0
 23 24  1  0
 24 25  1  0
 23 26  1  0
 26 27  2  0
  8 28  1  0
 28 29  2  0
 29  5  1  0
 27  9  1  0
 26 19  1  0
M  END
>  <Unnamed: 0>  (33) 
123

>  <atc_classifications>  (33) 
[]

>  <availability_type>  (33) 
-1

>  <biotherapeutic>  (33) 
nan

>  <black_box_warning>  (33) 
0

>  <chebi_par_id>  (33) 
nan

>  <chemical_probe>  (33) 
0

>  <chirality>  (33) 
-1

>  <cross_references>  (33) 
[]

>  <dosed_ingredient>  (33) 
False

>  <first_approval>  (33) 
nan

>  <first_in_class>  (33) 
-1

>  <helm_notation>  (33) 
nan

>  <indication_class>  (33) 
nan

>  <inorganic_flag>  (33) 
-1

>  <max_phase>  (33) 
nan

>  <molecule_hierarchy>  (33) 
{'active_chembl_id': 'CHEMBL4176571', 'molecule_chembl_id': 'CHEMBL4176571', 'parent_chembl_id': 'CHEMBL4176571'}

>  <molecule_properties>  (33) 
{'alogp': '5.03', 'aromatic_rings': 3, 'cx_logd': '2.80', 'cx_logp': '4.65', 'cx_most_apka': None, 'cx_most_bpka': '9.26', 'full_molformula': 'C24H30N2O3', 'full_mwt': '394.52', 'hba': 5, 'hba_lipinski': 5, 'hbd': 0, 'hbd_lipinski': 0, 'heavy_atoms': 29, 'molecular_species': 'BASE', 'mw_freebase': '394.52', 'mw_monoisotopic': '394.2256', 'np_likeness_score': '-0.86', 'num_lipinski_ro5_violations': 1, 'num_ro5_violations': 1, 'psa': '43.82', 'qed_weighted': '0.45', 'ro3_pass': 'N', 'rtb': 10}

>  <molecule_synonyms>  (33) 
[]

>  <molecule_type>  (33) 
Small molecule

>  <natural_product>  (33) 
0

>  <oral>  (33) 
False

>  <parenteral>  (33) 
False

>  <polymer_flag>  (33) 
0

>  <pref_name>  (33) 
nan

>  <prodrug>  (33) 
-1

>  <structure_type>  (33) 
MOL

>  <therapeutic_flag>  (33) 
False

>  <topical>  (33) 
False

>  <usan_stem>  (33) 
nan

>  <usan_stem_definition>  (33) 
nan

>  <usan_substem>  (33) 
nan

>  <usan_year>  (33) 
nan

>  <withdrawn_flag>  (33) 
False

>  <smiles>  (33) 
CCCOc1ccc(-c2cc(OCCCN(C)C)c3cccc(OC)c3n2)cc1

>  <cluster>  (33) 
2

$$$$
CHEMBL4176869
     RDKit          2D

 31 34  0  0  0  0  0  0  0  0999 V2000
   -7.5000  -10.3923    0.0000 C   0  0  0  0  0  0  0  0  0  0  0  0
   -6.0000  -10.3923    0.0000 C   0  0  0  0  0  0  0  0  0  0  0  0
   -5.2500   -9.0933    0.0000 C   0  0  0  0  0  0  0  0  0  0  0  0
   -3.7500   -9.0933    0.0000 O   0  0  0  0  0  0  0  0  0  0  0  0
   -3.0000   -7.7942    0.0000 C   0  0  0  0  0  0  0  0  0  0  0  0
   -3.7500   -6.4952    0.0000 C   0  0  0  0  0  0  0  0  0  0  0  0
   -3.0000   -5.1962    0.0000 C   0  0  0  0  0  0  0  0  0  0  0  0
   -1.5000   -5.1962    0.0000 C   0  0  0  0  0  0  0  0  0  0  0  0
   -0.7500   -3.8971    0.0000 C   0  0  0  0  0  0  0  0  0  0  0  0
    0.7500   -3.8971    0.0000 C   0  0  0  0  0  0  0  0  0  0  0  0
    1.5000   -2.5981    0.0000 C   0  0  0  0  0  0  0  0  0  0  0  0
    3.0000   -2.5981    0.0000 O   0  0  0  0  0  0  0  0  0  0  0  0
    3.7500   -3.8971    0.0000 C   0  0  0  0  0  0  0  0  0  0  0  0
    5.2500   -3.8971    0.0000 C   0  0  0  0  0  0  0  0  0  0  0  0
    6.0000   -5.1962    0.0000 N   0  0  0  0  0  0  0  0  0  0  0  0
    5.2500   -6.4952    0.0000 C   0  0  0  0  0  0  0  0  0  0  0  0
    6.0000   -7.7942    0.0000 C   0  0  0  0  0  0  0  0  0  0  0  0
    7.5000   -7.7942    0.0000 N   0  0  0  0  0  0  0  0  0  0  0  0
    8.2500   -6.4952    0.0000 C   0  0  0  0  0  0  0  0  0  0  0  0
    7.5000   -5.1962    0.0000 C   0  0  0  0  0  0  0  0  0  0  0  0
    0.7500   -1.2990    0.0000 C   0  0  0  0  0  0  0  0  0  0  0  0
    1.5000    0.0000    0.0000 C   0  0  0  0  0  0  0  0  0  0  0  0
    0.7500    1.2990    0.0000 C   0  0  0  0  0  0  0  0  0  0  0  0
    1.5000    2.5981    0.0000 O   0  0  0  0  0  0  0  0  0  0  0  0
    3.0000    2.5981    0.0000 C   0  0  0  0  0  0  0  0  0  0  0  0
   -0.7500    1.2990    0.0000 C   0  0  0  0  0  0  0  0  0  0  0  0
   -1.5000    0.0000    0.0000 C   0  0  0  0  0  0  0  0  0  0  0  0
   -0.7500   -1.2990    0.0000 C   0  0  0  0  0  0  0  0  0  0  0  0
   -1.5000   -2.5981    0.0000 N   0  0  0  0  0  0  0  0  0  0  0  0
   -0.7500   -6.4952    0.0000 C   0  0  0  0  0  0  0  0  0  0  0  0
   -1.5000   -7.7942    0.0000 C   0  0  0  0  0  0  0  0  0  0  0  0
  1  2  1  0
  2  3  1  0
  3  4  1  0
  4  5  1  0
  5  6  2  0
  6  7  1  0
  7  8  2  0
  8  9  1  0
  9 10  2  0
 10 11  1  0
 11 12  1  0
 12 13  1  0
 13 14  1  0
 14 15  1  0
 15 16  1  0
 16 17  1  0
 17 18  1  0
 18 19  1  0
 19 20  1  0
 11 21  2  0
 21 22  1  0
 22 23  2  0
 23 24  1  0
 24 25  1  0
 23 26  1  0
 26 27  2  0
 27 28  1  0
 28 29  2  0
  8 30  1  0
 30 31  2  0
 31  5  1  0
 29  9  1  0
 20 15  1  0
 28 21  1  0
M  END
>  <Unnamed: 0>  (34) 
124

>  <atc_classifications>  (34) 
[]

>  <availability_type>  (34) 
-1

>  <biotherapeutic>  (34) 
nan

>  <black_box_warning>  (34) 
0

>  <chebi_par_id>  (34) 
nan

>  <chemical_probe>  (34) 
0

>  <chirality>  (34) 
-1

>  <cross_references>  (34) 
[]

>  <dosed_ingredient>  (34) 
False

>  <first_approval>  (34) 
nan

>  <first_in_class>  (34) 
-1

>  <helm_notation>  (34) 
nan

>  <indication_class>  (34) 
nan

>  <inorganic_flag>  (34) 
-1

>  <max_phase>  (34) 
nan

>  <molecule_hierarchy>  (34) 
{'active_chembl_id': 'CHEMBL4176869', 'molecule_chembl_id': 'CHEMBL4176869', 'parent_chembl_id': 'CHEMBL4176869'}

>  <molecule_properties>  (34) 
{'alogp': '3.98', 'aromatic_rings': 3, 'cx_logd': '2.22', 'cx_logp': '4.05', 'cx_most_apka': None, 'cx_most_bpka': '9.24', 'full_molformula': 'C25H31N3O3', 'full_mwt': '421.54', 'hba': 6, 'hba_lipinski': 6, 'hbd': 1, 'hbd_lipinski': 1, 'heavy_atoms': 31, 'molecular_species': 'BASE', 'mw_freebase': '421.54', 'mw_monoisotopic': '421.2365', 'np_likeness_score': '-0.98', 'num_lipinski_ro5_violations': 0, 'num_ro5_violations': 0, 'psa': '55.85', 'qed_weighted': '0.56', 'ro3_pass': 'N', 'rtb': 9}

>  <molecule_synonyms>  (34) 
[]

>  <molecule_type>  (34) 
Small molecule

>  <natural_product>  (34) 
0

>  <oral>  (34) 
False

>  <parenteral>  (34) 
False

>  <polymer_flag>  (34) 
0

>  <pref_name>  (34) 
nan

>  <prodrug>  (34) 
-1

>  <structure_type>  (34) 
MOL

>  <therapeutic_flag>  (34) 
False

>  <topical>  (34) 
False

>  <usan_stem>  (34) 
nan

>  <usan_stem_definition>  (34) 
nan

>  <usan_substem>  (34) 
nan

>  <usan_year>  (34) 
nan

>  <withdrawn_flag>  (34) 
False

>  <smiles>  (34) 
CCCOc1ccc(-c2cc(OCCN3CCNCC3)c3cc(OC)ccc3n2)cc1

>  <cluster>  (34) 
2

$$$$
