CHEMBL4165958
     RDKit          2D

 39 43  0  0  0  0  0  0  0  0999 V2000
   -7.5000  -10.3923    0.0000 C   0  0  0  0  0  0  0  0  0  0  0  0
   -6.0000  -10.3923    0.0000 C   0  0  0  0  0  0  0  0  0  0  0  0
   -5.2500   -9.0933    0.0000 C   0  0  0  0  0  0  0  0  0  0  0  0
   -3.7500   -9.0933    0.0000 O   0  0  0  0  0  0  0  0  0  0  0  0
   -3.0000   -7.7942    0.0000 C   0  0  0  0  0  0  0  0  0  0  0  0
   -3.7500   -6.4952    0.0000 C   0  0  0  0  0  0  0  0  0  0  0  0
   -3.0000   -5.1962    0.0000 C   0  0  0  0  0  0  0  0  0  0  0  0
   -1.5000   -5.1962    0.0000 C   0  0  0  0  0  0  0  0  0  0  0  0
   -0.7500   -3.8971    0.0000 C   0  0  0  0  0  0  0  0  0  0  0  0
    0.7500   -3.8971    0.0000 C   0  0  0  0  0  0  0  0  0  0  0  0
    1.5000   -2.5981    0.0000 C   0  0  0  0  0  0  0  0  0  0  0  0
    3.0000   -2.5981    0.0000 O   0  0  0  0  0  0  0  0  0  0  0  0
    3.7500   -3.8971    0.0000 C   0  0  0  0  0  0  0  0  0  0  0  0
    5.2500   -3.8971    0.0000 C   0  0  0  0  0  0  0  0  0  0  0  0
    6.0000   -5.1962    0.0000 N   0  0  0  0  0  0  0  0  0  0  0  0
    5.2500   -6.4952    0.0000 C   0  0  0  0  0  0  0  0  0  0  0  0
    6.0000   -7.7942    0.0000 C   0  0  0  0  0  0  0  0  0  0  0  0
    7.5000   -7.7942    0.0000 C   0  0  0  0  0  0  0  0  0  0  0  0
    8.2500   -9.0933    0.0000 C   0  0  0  0  0  0  0  0  0  0  0  0
    9.7500   -9.0933    0.0000 C   0  0  0  0  0  0  0  0  0  0  0  0
   10.5000  -10.3923    0.0000 O   0  0  0  0  0  0  0  0  0  0  0  0
    9.7500  -11.6913    0.0000 C   0  0  0  0  0  0  0  0  0  0  0  0
   10.5000   -7.7942    0.0000 C   0  0  0  0  0  0  0  0  0  0  0  0
   12.0000   -7.7942    0.0000 O   0  0  0  0  0  0  0  0  0  0  0  0
   12.7500   -6.4952    0.0000 C   0  0  0  0  0  0  0  0  0  0  0  0
    9.7500   -6.4952    0.0000 C   0  0  0  0  0  0  0  0  0  0  0  0
    8.2500   -6.4952    0.0000 C   0  0  0  0  0  0  0  0  0  0  0  0
    7.5000   -5.1962    0.0000 C   0  0  0  0  0  0  0  0  0  0  0  0
    0.7500   -1.2990    0.0000 C   0  0  0  0  0  0  0  0  0  0  0  0
    1.5000    0.0000    0.0000 C   0  0  0  0  0  0  0  0  0  0  0  0
    0.7500    1.2990    0.0000 C   0  0  0  0  0  0  0  0  0  0  0  0
   -0.7500    1.2990    0.0000 C   0  0  0  0  0  0  0  0  0  0  0  0
   -1.5000    0.0000    0.0000 C   0  0  0  0  0  0  0  0  0  0  0  0
   -3.0000    0.0000    0.0000 O   0  0  0  0  0  0  0  0  0  0  0  0
   -3.7500    1.2990    0.0000 C   0  0  0  0  0  0  0  0  0  0  0  0
   -0.7500   -1.2990    0.0000 C   0  0  0  0  0  0  0  0  0  0  0  0
   -1.5000   -2.5981    0.0000 N   0  0  0  0  0  0  0  0  0  0  0  0
   -0.7500   -6.4952    0.0000 C   0  0  0  0  0  0  0  0  0  0  0  0
   -1.5000   -7.7942    0.0000 C   0  0  0  0  0  0  0  0  0  0  0  0
  1  2  1  0
  2  3  1  0
  3  4  1  0
  4  5  1  0
  5  6  2  0
  6  7  1  0
  7  8  2  0
  8  9  1  0
  9 10  2  0
 10 11  1  0
 11 12  1  0
 12 13  1  0
 13 14  1  0
 14 15  1  0
 15 16  1  0
 16 17  1  0
 17 18  1  0
 18 19  2  0
 19 20  1  0
 20 21  1  0
 21 22  1  0
 20 23  2  0
 23 24  1  0
 24 25  1  0
 23 26  1  0
 26 27  2  0
 27 28  1  0
 11 29  2  0
 29 30  1  0
 30 31  2  0
 31 32  1  0
 32 33  2  0
 33 34  1  0
 34 35  1  0
 33 36  1  0
 36 37  2  0
  8 38  1  0
 38 39  2  0
 39  5  1  0
 37  9  1  0
 28 15  1  0
 36 29  1  0
 27 18  1  0
M  END
>  <Unnamed: 0>  (1) 
101

>  <atc_classifications>  (1) 
[]

>  <availability_type>  (1) 
-1

>  <biotherapeutic>  (1) 
nan

>  <black_box_warning>  (1) 
0

>  <chebi_par_id>  (1) 
nan

>  <chemical_probe>  (1) 
0

>  <chirality>  (1) 
-1

>  <cross_references>  (1) 
[]

>  <dosed_ingredient>  (1) 
False

>  <first_approval>  (1) 
nan

>  <first_in_class>  (1) 
-1

>  <helm_notation>  (1) 
nan

>  <indication_class>  (1) 
nan

>  <inorganic_flag>  (1) 
-1

>  <max_phase>  (1) 
nan

>  <molecule_hierarchy>  (1) 
{'active_chembl_id': 'CHEMBL4165958', 'molecule_chembl_id': 'CHEMBL4165958', 'parent_chembl_id': 'CHEMBL4165958'}

>  <molecule_properties>  (1) 
{'alogp': '6.15', 'aromatic_rings': 4, 'cx_logd': '5.49', 'cx_logp': '6.04', 'cx_most_apka': None, 'cx_most_bpka': '7.81', 'full_molformula': 'C32H36N2O5', 'full_mwt': '528.65', 'hba': 7, 'hba_lipinski': 7, 'hbd': 0, 'hbd_lipinski': 0, 'heavy_atoms': 39, 'molecular_species': 'NEUTRAL', 'mw_freebase': '528.65', 'mw_monoisotopic': '528.2624', 'np_likeness_score': '-0.76', 'num_lipinski_ro5_violations': 2, 'num_ro5_violations': 2, 'psa': '62.28', 'qed_weighted': '0.23', 'ro3_pass': 'N', 'rtb': 11}

>  <molecule_synonyms>  (1) 
[]

>  <molecule_type>  (1) 
Small molecule

>  <natural_product>  (1) 
0

>  <oral>  (1) 
False

>  <parenteral>  (1) 
False

>  <polymer_flag>  (1) 
0

>  <pref_name>  (1) 
nan

>  <prodrug>  (1) 
-1

>  <structure_type>  (1) 
MOL

>  <therapeutic_flag>  (1) 
False

>  <topical>  (1) 
False

>  <usan_stem>  (1) 
nan

>  <usan_stem_definition>  (1) 
nan

>  <usan_substem>  (1) 
nan

>  <usan_year>  (1) 
nan

>  <withdrawn_flag>  (1) 
False

>  <smiles>  (1) 
CCCOc1ccc(-c2cc(OCCN3CCc4cc(OC)c(OC)cc4C3)c3cccc(OC)c3n2)cc1

>  <cluster>  (1) 
4

$$$$
CHEMBL4170066
     RDKit          2D

 41 45  0  0  0  0  0  0  0  0999 V2000
    3.0000  -10.3923    0.0000 C   0  0  0  0  0  0  0  0  0  0  0  0
    3.7500   -9.0933    0.0000 C   0  0  0  0  0  0  0  0  0  0  0  0
    3.0000   -7.7942    0.0000 C   0  0  0  0  0  0  0  0  0  0  0  0
    3.7500   -6.4952    0.0000 O   0  0  0  0  0  0  0  0  0  0  0  0
    3.0000   -5.1962    0.0000 C   0  0  0  0  0  0  0  0  0  0  0  0
    1.5000   -5.1962    0.0000 C   0  0  0  0  0  0  0  0  0  0  0  0
    0.7500   -3.8971    0.0000 C   0  0  0  0  0  0  0  0  0  0  0  0
    1.5000   -2.5981    0.0000 C   0  0  0  0  0  0  0  0  0  0  0  0
    0.7500   -1.2990    0.0000 C   0  0  0  0  0  0  0  0  0  0  0  0
    1.5000    0.0000    0.0000 C   0  0  0  0  0  0  0  0  0  0  0  0
    0.7500    1.2990    0.0000 C   0  0  0  0  0  0  0  0  0  0  0  0
    1.5000    2.5981    0.0000 O   0  0  0  0  0  0  0  0  0  0  0  0
    3.0000    2.5981    0.0000 C   0  0  0  0  0  0  0  0  0  0  0  0
    3.7500    3.8971    0.0000 C   0  0  0  0  0  0  0  0  0  0  0  0
    5.2500    3.8971    0.0000 N   0  0  0  0  0  0  0  0  0  0  0  0
    6.0000    2.5981    0.0000 C   0  0  0  0  0  0  0  0  0  0  0  0
    7.5000    2.5981    0.0000 C   0  0  0  0  0  0  0  0  0  0  0  0
    8.2500    3.8971    0.0000 C   0  0  0  0  0  0  0  0  0  0  0  0
    9.7500    3.8971    0.0000 C   0  0  0  0  0  0  0  0  0  0  0  0
   10.5000    5.1962    0.0000 C   0  0  0  0  0  0  0  0  0  0  0  0
   12.0000    5.1962    0.0000 O   0  0  0  0  0  0  0  0  0  0  0  0
   12.7500    3.8971    0.0000 C   0  0  0  0  0  0  0  0  0  0  0  0
    9.7500    6.4952    0.0000 C   0  0  0  0  0  0  0  0  0  0  0  0
   10.5000    7.7942    0.0000 O   0  0  0  0  0  0  0  0  0  0  0  0
    9.7500    9.0933    0.0000 C   0  0  0  0  0  0  0  0  0  0  0  0
    8.2500    6.4952    0.0000 C   0  0  0  0  0  0  0  0  0  0  0  0
    7.5000    5.1962    0.0000 C   0  0  0  0  0  0  0  0  0  0  0  0
    6.0000    5.1962    0.0000 C   0  0  0  0  0  0  0  0  0  0  0  0
   -0.7500    1.2990    0.0000 C   0  0  0  0  0  0  0  0  0  0  0  0
   -1.5000    2.5981    0.0000 C   0  0  0  0  0  0  0  0  0  0  0  0
   -3.0000    2.5981    0.0000 C   0  0  0  0  0  0  0  0  0  0  0  0
   -3.7500    3.8971    0.0000 O   0  0  0  0  0  0  0  0  0  0  0  0
   -3.0000    5.1962    0.0000 C   0  0  0  0  0  0  0  0  0  0  0  0
   -3.7500    1.2990    0.0000 C   0  0  0  0  0  0  0  0  0  0  0  0
   -3.0000    0.0000    0.0000 C   0  0  0  0  0  0  0  0  0  0  0  0
   -3.7500   -1.2990    0.0000 O   0  0  0  0  0  0  0  0  0  0  0  0
   -5.2500   -1.2990    0.0000 C   0  0  0  0  0  0  0  0  0  0  0  0
   -1.5000    0.0000    0.0000 C   0  0  0  0  0  0  0  0  0  0  0  0
   -0.7500   -1.2990    0.0000 N   0  0  0  0  0  0  0  0  0  0  0  0
    3.0000   -2.5981    0.0000 C   0  0  0  0  0  0  0  0  0  0  0  0
    3.7500   -3.8971    0.0000 C   0  0  0  0  0  0  0  0  0  0  0  0
  1  2  1  0
  2  3  1  0
  3  4  1  0
  4  5  1  0
  5  6  2  0
  6  7  1  0
  7  8  2  0
  8  9  1  0
  9 10  2  0
 10 11  1  0
 11 12  1  0
 12 13  1  0
 13 14  1  0
 14 15  1  0
 15 16  1  0
 16 17  1  0
 17 18  1  0
 18 19  2  0
 19 20  1  0
 20 21  1  0
 21 22  1  0
 20 23  2  0
 23 24  1  0
 24 25  1  0
 23 26  1  0
 26 27  2  0
 27 28  1  0
 11 29  2  0
 29 30  1  0
 30 31  2  0
 31 32  1  0
 32 33  1  0
 31 34  1  0
 34 35  2  0
 35 36  1  0
 36 37  1  0
 35 38  1  0
 38 39  2  0
  8 40  1  0
 40 41  2  0
 41  5  1  0
 39  9  1  0
 28 15  1  0
 38 29  1  0
 27 18  1  0
M  END
>  <Unnamed: 0>  (2) 
110

>  <atc_classifications>  (2) 
[]

>  <availability_type>  (2) 
-1

>  <biotherapeutic>  (2) 
nan

>  <black_box_warning>  (2) 
0

>  <chebi_par_id>  (2) 
nan

>  <chemical_probe>  (2) 
0

>  <chirality>  (2) 
-1

>  <cross_references>  (2) 
[]

>  <dosed_ingredient>  (2) 
False

>  <first_approval>  (2) 
nan

>  <first_in_class>  (2) 
-1

>  <helm_notation>  (2) 
nan

>  <indication_class>  (2) 
nan

>  <inorganic_flag>  (2) 
-1

>  <max_phase>  (2) 
nan

>  <molecule_hierarchy>  (2) 
{'active_chembl_id': 'CHEMBL4170066', 'molecule_chembl_id': 'CHEMBL4170066', 'parent_chembl_id': 'CHEMBL4170066'}

>  <molecule_properties>  (2) 
{'alogp': '6.16', 'aromatic_rings': 4, 'cx_logd': '5.35', 'cx_logp': '5.88', 'cx_most_apka': None, 'cx_most_bpka': '7.79', 'full_molformula': 'C33H38N2O6', 'full_mwt': '558.68', 'hba': 8, 'hba_lipinski': 8, 'hbd': 0, 'hbd_lipinski': 0, 'heavy_atoms': 41, 'molecular_species': 'NEUTRAL', 'mw_freebase': '558.68', 'mw_monoisotopic': '558.2730', 'np_likeness_score': '-0.64', 'num_lipinski_ro5_violations': 2, 'num_ro5_violations': 2, 'psa': '71.51', 'qed_weighted': '0.20', 'ro3_pass': 'N', 'rtb': 12}

>  <molecule_synonyms>  (2) 
[]

>  <molecule_type>  (2) 
Small molecule

>  <natural_product>  (2) 
0

>  <oral>  (2) 
False

>  <parenteral>  (2) 
False

>  <polymer_flag>  (2) 
0

>  <pref_name>  (2) 
nan

>  <prodrug>  (2) 
-1

>  <structure_type>  (2) 
MOL

>  <therapeutic_flag>  (2) 
False

>  <topical>  (2) 
False

>  <usan_stem>  (2) 
nan

>  <usan_stem_definition>  (2) 
nan

>  <usan_substem>  (2) 
nan

>  <usan_year>  (2) 
nan

>  <withdrawn_flag>  (2) 
False

>  <smiles>  (2) 
CCCOc1ccc(-c2cc(OCCN3CCc4cc(OC)c(OC)cc4C3)c3cc(OC)cc(OC)c3n2)cc1

>  <cluster>  (2) 
4

$$$$
CHEMBL4171147
     RDKit          2D

 41 45  0  0  0  0  0  0  0  0999 V2000
    3.0000  -10.3923    0.0000 C   0  0  0  0  0  0  0  0  0  0  0  0
    3.7500   -9.0933    0.0000 C   0  0  0  0  0  0  0  0  0  0  0  0
    3.0000   -7.7942    0.0000 C   0  0  0  0  0  0  0  0  0  0  0  0
    3.7500   -6.4952    0.0000 O   0  0  0  0  0  0  0  0  0  0  0  0
    3.0000   -5.1962    0.0000 C   0  0  0  0  0  0  0  0  0  0  0  0
    1.5000   -5.1962    0.0000 C   0  0  0  0  0  0  0  0  0  0  0  0
    0.7500   -3.8971    0.0000 C   0  0  0  0  0  0  0  0  0  0  0  0
    1.5000   -2.5981    0.0000 C   0  0  0  0  0  0  0  0  0  0  0  0
    0.7500   -1.2990    0.0000 C   0  0  0  0  0  0  0  0  0  0  0  0
    1.5000    0.0000    0.0000 C   0  0  0  0  0  0  0  0  0  0  0  0
    0.7500    1.2990    0.0000 C   0  0  0  0  0  0  0  0  0  0  0  0
    1.5000    2.5981    0.0000 O   0  0  0  0  0  0  0  0  0  0  0  0
    3.0000    2.5981    0.0000 C   0  0  0  0  0  0  0  0  0  0  0  0
    3.7500    3.8971    0.0000 C   0  0  0  0  0  0  0  0  0  0  0  0
    5.2500    3.8971    0.0000 N   0  0  0  0  0  0  0  0  0  0  0  0
    6.0000    2.5981    0.0000 C   0  0  0  0  0  0  0  0  0  0  0  0
    7.5000    2.5981    0.0000 C   0  0  0  0  0  0  0  0  0  0  0  0
    8.2500    3.8971    0.0000 C   0  0  0  0  0  0  0  0  0  0  0  0
    9.7500    3.8971    0.0000 C   0  0  0  0  0  0  0  0  0  0  0  0
   10.5000    5.1962    0.0000 C   0  0  0  0  0  0  0  0  0  0  0  0
   12.0000    5.1962    0.0000 O   0  0  0  0  0  0  0  0  0  0  0  0
   12.7500    3.8971    0.0000 C   0  0  0  0  0  0  0  0  0  0  0  0
    9.7500    6.4952    0.0000 C   0  0  0  0  0  0  0  0  0  0  0  0
   10.5000    7.7942    0.0000 O   0  0  0  0  0  0  0  0  0  0  0  0
    9.7500    9.0933    0.0000 C   0  0  0  0  0  0  0  0  0  0  0  0
    8.2500    6.4952    0.0000 C   0  0  0  0  0  0  0  0  0  0  0  0
    7.5000    5.1962    0.0000 C   0  0  0  0  0  0  0  0  0  0  0  0
    6.0000    5.1962    0.0000 C   0  0  0  0  0  0  0  0  0  0  0  0
   -0.7500    1.2990    0.0000 C   0  0  0  0  0  0  0  0  0  0  0  0
   -1.5000    2.5981    0.0000 C   0  0  0  0  0  0  0  0  0  0  0  0
   -3.0000    2.5981    0.0000 C   0  0  0  0  0  0  0  0  0  0  0  0
   -3.7500    3.8971    0.0000 O   0  0  0  0  0  0  0  0  0  0  0  0
   -3.0000    5.1962    0.0000 C   0  0  0  0  0  0  0  0  0  0  0  0
   -3.7500    1.2990    0.0000 C   0  0  0  0  0  0  0  0  0  0  0  0
   -5.2500    1.2990    0.0000 O   0  0  0  0  0  0  0  0  0  0  0  0
   -6.0000    0.0000    0.0000 C   0  0  0  0  0  0  0  0  0  0  0  0
   -3.0000    0.0000    0.0000 C   0  0  0  0  0  0  0  0  0  0  0  0
   -1.5000    0.0000    0.0000 C   0  0  0  0  0  0  0  0  0  0  0  0
   -0.7500   -1.2990    0.0000 N   0  0  0  0  0  0  0  0  0  0  0  0
    3.0000   -2.5981    0.0000 C   0  0  0  0  0  0  0  0  0  0  0  0
    3.7500   -3.8971    0.0000 C   0  0  0  0  0  0  0  0  0  0  0  0
  1  2  1  0
  2  3  1  0
  3  4  1  0
  4  5  1  0
  5  6  2  0
  6  7  1  0
  7  8  2  0
  8  9  1  0
  9 10  2  0
 10 11  1  0
 11 12  1  0
 12 13  1  0
 13 14  1  0
 14 15  1  0
 15 16  1  0
 16 17  1  0
 17 18  1  0
 18 19  2  0
 19 20  1  0
 20 21  1  0
 21 22  1  0
 20 23  2  0
 23 24  1  0
 24 25  1  0
 23 26  1  0
 26 27  2  0
 27 28  1  0
 11 29  2  0
 29 30  1  0
 30 31  2  0
 31 32  1  0
 32 33  1  0
 31 34  1  0
 34 35  1  0
 35 36  1  0
 34 37  2  0
 37 38  1  0
 38 39  2  0
  8 40  1  0
 40 41  2  0
 41  5  1  0
 39  9  1  0
 28 15  1  0
 38 29  1  0
 27 18  1  0
M  END
>  <Unnamed: 0>  (3) 
111

>  <atc_classifications>  (3) 
[]

>  <availability_type>  (3) 
-1

>  <biotherapeutic>  (3) 
nan

>  <black_box_warning>  (3) 
0

>  <chebi_par_id>  (3) 
nan

>  <chemical_probe>  (3) 
0

>  <chirality>  (3) 
-1

>  <cross_references>  (3) 
[]

>  <dosed_ingredient>  (3) 
False

>  <first_approval>  (3) 
nan

>  <first_in_class>  (3) 
-1

>  <helm_notation>  (3) 
nan

>  <indication_class>  (3) 
nan

>  <inorganic_flag>  (3) 
-1

>  <max_phase>  (3) 
nan

>  <molecule_hierarchy>  (3) 
{'active_chembl_id': 'CHEMBL4171147', 'molecule_chembl_id': 'CHEMBL4171147', 'parent_chembl_id': 'CHEMBL4171147'}

>  <molecule_properties>  (3) 
{'alogp': '6.16', 'aromatic_rings': 4, 'cx_logd': '5.34', 'cx_logp': '5.88', 'cx_most_apka': None, 'cx_most_bpka': '7.79', 'full_molformula': 'C33H38N2O6', 'full_mwt': '558.68', 'hba': 8, 'hba_lipinski': 8, 'hbd': 0, 'hbd_lipinski': 0, 'heavy_atoms': 41, 'molecular_species': 'NEUTRAL', 'mw_freebase': '558.68', 'mw_monoisotopic': '558.2730', 'np_likeness_score': '-0.67', 'num_lipinski_ro5_violations': 2, 'num_ro5_violations': 2, 'psa': '71.51', 'qed_weighted': '0.20', 'ro3_pass': 'N', 'rtb': 12}

>  <molecule_synonyms>  (3) 
[]

>  <molecule_type>  (3) 
Small molecule

>  <natural_product>  (3) 
0

>  <oral>  (3) 
False

>  <parenteral>  (3) 
False

>  <polymer_flag>  (3) 
0

>  <pref_name>  (3) 
nan

>  <prodrug>  (3) 
-1

>  <structure_type>  (3) 
MOL

>  <therapeutic_flag>  (3) 
False

>  <topical>  (3) 
False

>  <usan_stem>  (3) 
nan

>  <usan_stem_definition>  (3) 
nan

>  <usan_substem>  (3) 
nan

>  <usan_year>  (3) 
nan

>  <withdrawn_flag>  (3) 
False

>  <smiles>  (3) 
CCCOc1ccc(-c2cc(OCCN3CCc4cc(OC)c(OC)cc4C3)c3cc(OC)c(OC)cc3n2)cc1

>  <cluster>  (3) 
4

$$$$
CHEMBL4174957
     RDKit          2D

 39 43  0  0  0  0  0  0  0  0999 V2000
   -7.5000  -10.3923    0.0000 C   0  0  0  0  0  0  0  0  0  0  0  0
   -6.0000  -10.3923    0.0000 C   0  0  0  0  0  0  0  0  0  0  0  0
   -5.2500   -9.0933    0.0000 C   0  0  0  0  0  0  0  0  0  0  0  0
   -3.7500   -9.0933    0.0000 O   0  0  0  0  0  0  0  0  0  0  0  0
   -3.0000   -7.7942    0.0000 C   0  0  0  0  0  0  0  0  0  0  0  0
   -3.7500   -6.4952    0.0000 C   0  0  0  0  0  0  0  0  0  0  0  0
   -3.0000   -5.1962    0.0000 C   0  0  0  0  0  0  0  0  0  0  0  0
   -1.5000   -5.1962    0.0000 C   0  0  0  0  0  0  0  0  0  0  0  0
   -0.7500   -3.8971    0.0000 C   0  0  0  0  0  0  0  0  0  0  0  0
    0.7500   -3.8971    0.0000 C   0  0  0  0  0  0  0  0  0  0  0  0
    1.5000   -2.5981    0.0000 C   0  0  0  0  0  0  0  0  0  0  0  0
    3.0000   -2.5981    0.0000 O   0  0  0  0  0  0  0  0  0  0  0  0
    3.7500   -3.8971    0.0000 C   0  0  0  0  0  0  0  0  0  0  0  0
    5.2500   -3.8971    0.0000 C   0  0  0  0  0  0  0  0  0  0  0  0
    6.0000   -5.1962    0.0000 N   0  0  0  0  0  0  0  0  0  0  0  0
    5.2500   -6.4952    0.0000 C   0  0  0  0  0  0  0  0  0  0  0  0
    6.0000   -7.7942    0.0000 C   0  0  0  0  0  0  0  0  0  0  0  0
    7.5000   -7.7942    0.0000 C   0  0  0  0  0  0  0  0  0  0  0  0
    8.2500   -9.0933    0.0000 C   0  0  0  0  0  0  0  0  0  0  0  0
    9.7500   -9.0933    0.0000 C   0  0  0  0  0  0  0  0  0  0  0  0
   10.5000  -10.3923    0.0000 O   0  0  0  0  0  0  0  0  0  0  0  0
    9.7500  -11.6913    0.0000 C   0  0  0  0  0  0  0  0  0  0  0  0
   10.5000   -7.7942    0.0000 C   0  0  0  0  0  0  0  0  0  0  0  0
   12.0000   -7.7942    0.0000 O   0  0  0  0  0  0  0  0  0  0  0  0
   12.7500   -6.4952    0.0000 C   0  0  0  0  0  0  0  0  0  0  0  0
    9.7500   -6.4952    0.0000 C   0  0  0  0  0  0  0  0  0  0  0  0
    8.2500   -6.4952    0.0000 C   0  0  0  0  0  0  0  0  0  0  0  0
    7.5000   -5.1962    0.0000 C   0  0  0  0  0  0  0  0  0  0  0  0
    0.7500   -1.2990    0.0000 C   0  0  0  0  0  0  0  0  0  0  0  0
    1.5000    0.0000    0.0000 C   0  0  0  0  0  0  0  0  0  0  0  0
    0.7500    1.2990    0.0000 C   0  0  0  0  0  0  0  0  0  0  0  0
   -0.7500    1.2990    0.0000 C   0  0  0  0  0  0  0  0  0  0  0  0
   -1.5000    2.5981    0.0000 O   0  0  0  0  0  0  0  0  0  0  0  0
   -0.7500    3.8971    0.0000 C   0  0  0  0  0  0  0  0  0  0  0  0
   -1.5000    0.0000    0.0000 C   0  0  0  0  0  0  0  0  0  0  0  0
   -0.7500   -1.2990    0.0000 C   0  0  0  0  0  0  0  0  0  0  0  0
   -1.5000   -2.5981    0.0000 N   0  0  0  0  0  0  0  0  0  0  0  0
   -0.7500   -6.4952    0.0000 C   0  0  0  0  0  0  0  0  0  0  0  0
   -1.5000   -7.7942    0.0000 C   0  0  0  0  0  0  0  0  0  0  0  0
  1  2  1  0
  2  3  1  0
  3  4  1  0
  4  5  1  0
  5  6  2  0
  6  7  1  0
  7  8  2  0
  8  9  1  0
  9 10  2  0
 10 11  1  0
 11 12  1  0
 12 13  1  0
 13 14  1  0
 14 15  1  0
 15 16  1  0
 16 17  1  0
 17 18  1  0
 18 19  2  0
 19 20  1  0
 20 21  1  0
 21 22  1  0
 20 23  2  0
 23 24  1  0
 24 25  1  0
 23 26  1  0
 26 27  2  0
 27 28  1  0
 11 29  2  0
 29 30  1  0
 30 31  2  0
 31 32  1  0
 32 33  1  0
 33 34  1  0
 32 35  2  0
 35 36  1  0
 36 37  2  0
  8 38  1  0
 38 39  2  0
 39  5  1  0
 37  9  1  0
 28 15  1  0
 36 29  1  0
 27 18  1  0
M  END
>  <Unnamed: 0>  (4) 
119

>  <atc_classifications>  (4) 
[]

>  <availability_type>  (4) 
-1

>  <biotherapeutic>  (4) 
nan

>  <black_box_warning>  (4) 
0

>  <chebi_par_id>  (4) 
nan

>  <chemical_probe>  (4) 
0

>  <chirality>  (4) 
-1

>  <cross_references>  (4) 
[]

>  <dosed_ingredient>  (4) 
False

>  <first_approval>  (4) 
nan

>  <first_in_class>  (4) 
-1

>  <helm_notation>  (4) 
nan

>  <indication_class>  (4) 
nan

>  <inorganic_flag>  (4) 
-1

>  <max_phase>  (4) 
nan

>  <molecule_hierarchy>  (4) 
{'active_chembl_id': 'CHEMBL4174957', 'molecule_chembl_id': 'CHEMBL4174957', 'parent_chembl_id': 'CHEMBL4174957'}

>  <molecule_properties>  (4) 
{'alogp': '6.15', 'aromatic_rings': 4, 'cx_logd': '5.49', 'cx_logp': '6.04', 'cx_most_apka': None, 'cx_most_bpka': '7.80', 'full_molformula': 'C32H36N2O5', 'full_mwt': '528.65', 'hba': 7, 'hba_lipinski': 7, 'hbd': 0, 'hbd_lipinski': 0, 'heavy_atoms': 39, 'molecular_species': 'NEUTRAL', 'mw_freebase': '528.65', 'mw_monoisotopic': '528.2624', 'np_likeness_score': '-0.72', 'num_lipinski_ro5_violations': 2, 'num_ro5_violations': 2, 'psa': '62.28', 'qed_weighted': '0.23', 'ro3_pass': 'N', 'rtb': 11}

>  <molecule_synonyms>  (4) 
[]

>  <molecule_type>  (4) 
Small molecule

>  <natural_product>  (4) 
0

>  <oral>  (4) 
False

>  <parenteral>  (4) 
False

>  <polymer_flag>  (4) 
0

>  <pref_name>  (4) 
nan

>  <prodrug>  (4) 
-1

>  <structure_type>  (4) 
MOL

>  <therapeutic_flag>  (4) 
False

>  <topical>  (4) 
False

>  <usan_stem>  (4) 
nan

>  <usan_stem_definition>  (4) 
nan

>  <usan_substem>  (4) 
nan

>  <usan_year>  (4) 
nan

>  <withdrawn_flag>  (4) 
False

>  <smiles>  (4) 
CCCOc1ccc(-c2cc(OCCN3CCc4cc(OC)c(OC)cc4C3)c3ccc(OC)cc3n2)cc1

>  <cluster>  (4) 
4

$$$$
CHEMBL4175014
     RDKit          2D

 41 45  0  0  0  0  0  0  0  0999 V2000
    3.0000  -10.3923    0.0000 C   0  0  0  0  0  0  0  0  0  0  0  0
    3.7500   -9.0933    0.0000 C   0  0  0  0  0  0  0  0  0  0  0  0
    3.0000   -7.7942    0.0000 C   0  0  0  0  0  0  0  0  0  0  0  0
    3.7500   -6.4952    0.0000 O   0  0  0  0  0  0  0  0  0  0  0  0
    3.0000   -5.1962    0.0000 C   0  0  0  0  0  0  0  0  0  0  0  0
    1.5000   -5.1962    0.0000 C   0  0  0  0  0  0  0  0  0  0  0  0
    0.7500   -3.8971    0.0000 C   0  0  0  0  0  0  0  0  0  0  0  0
    1.5000   -2.5981    0.0000 C   0  0  0  0  0  0  0  0  0  0  0  0
    0.7500   -1.2990    0.0000 C   0  0  0  0  0  0  0  0  0  0  0  0
    1.5000    0.0000    0.0000 C   0  0  0  0  0  0  0  0  0  0  0  0
    0.7500    1.2990    0.0000 C   0  0  0  0  0  0  0  0  0  0  0  0
    1.5000    2.5981    0.0000 O   0  0  0  0  0  0  0  0  0  0  0  0
    3.0000    2.5981    0.0000 C   0  0  0  0  0  0  0  0  0  0  0  0
    3.7500    3.8971    0.0000 C   0  0  0  0  0  0  0  0  0  0  0  0
    5.2500    3.8971    0.0000 N   0  0  0  0  0  0  0  0  0  0  0  0
    6.0000    2.5981    0.0000 C   0  0  0  0  0  0  0  0  0  0  0  0
    7.5000    2.5981    0.0000 C   0  0  0  0  0  0  0  0  0  0  0  0
    8.2500    3.8971    0.0000 C   0  0  0  0  0  0  0  0  0  0  0  0
    9.7500    3.8971    0.0000 C   0  0  0  0  0  0  0  0  0  0  0  0
   10.5000    5.1962    0.0000 C   0  0  0  0  0  0  0  0  0  0  0  0
   12.0000    5.1962    0.0000 O   0  0  0  0  0  0  0  0  0  0  0  0
   12.7500    3.8971    0.0000 C   0  0  0  0  0  0  0  0  0  0  0  0
    9.7500    6.4952    0.0000 C   0  0  0  0  0  0  0  0  0  0  0  0
   10.5000    7.7942    0.0000 O   0  0  0  0  0  0  0  0  0  0  0  0
    9.7500    9.0933    0.0000 C   0  0  0  0  0  0  0  0  0  0  0  0
    8.2500    6.4952    0.0000 C   0  0  0  0  0  0  0  0  0  0  0  0
    7.5000    5.1962    0.0000 C   0  0  0  0  0  0  0  0  0  0  0  0
    6.0000    5.1962    0.0000 C   0  0  0  0  0  0  0  0  0  0  0  0
   -0.7500    1.2990    0.0000 C   0  0  0  0  0  0  0  0  0  0  0  0
   -1.5000    2.5981    0.0000 C   0  0  0  0  0  0  0  0  0  0  0  0
   -0.7500    3.8971    0.0000 O   0  0  0  0  0  0  0  0  0  0  0  0
   -1.5000    5.1962    0.0000 C   0  0  0  0  0  0  0  0  0  0  0  0
   -3.0000    2.5981    0.0000 C   0  0  0  0  0  0  0  0  0  0  0  0
   -3.7500    1.2990    0.0000 C   0  0  0  0  0  0  0  0  0  0  0  0
   -5.2500    1.2990    0.0000 O   0  0  0  0  0  0  0  0  0  0  0  0
   -6.0000    2.5981    0.0000 C   0  0  0  0  0  0  0  0  0  0  0  0
   -3.0000    0.0000    0.0000 C   0  0  0  0  0  0  0  0  0  0  0  0
   -1.5000    0.0000    0.0000 C   0  0  0  0  0  0  0  0  0  0  0  0
   -0.7500   -1.2990    0.0000 N   0  0  0  0  0  0  0  0  0  0  0  0
    3.0000   -2.5981    0.0000 C   0  0  0  0  0  0  0  0  0  0  0  0
    3.7500   -3.8971    0.0000 C   0  0  0  0  0  0  0  0  0  0  0  0
  1  2  1  0
  2  3  1  0
  3  4  1  0
  4  5  1  0
  5  6  2  0
  6  7  1  0
  7  8  2  0
  8  9  1  0
  9 10  2  0
 10 11  1  0
 11 12  1  0
 12 13  1  0
 13 14  1  0
 14 15  1  0
 15 16  1  0
 16 17  1  0
 17 18  1  0
 18 19  2  0
 19 20  1  0
 20 21  1  0
 21 22  1  0
 20 23  2  0
 23 24  1  0
 24 25  1  0
 23 26  1  0
 26 27  2  0
 27 28  1  0
 11 29  2  0
 29 30  1  0
 30 31  1  0
 31 32  1  0
 30 33  2  0
 33 34  1  0
 34 35  1  0
 35 36  1  0
 34 37  2  0
 37 38  1  0
 38 39  2  0
  8 40  1  0
 40 41  2  0
 41  5  1  0
 39  9  1  0
 28 15  1  0
 38 29  1  0
 27 18  1  0
M  END
>  <Unnamed: 0>  (5) 
120

>  <atc_classifications>  (5) 
[]

>  <availability_type>  (5) 
-1

>  <biotherapeutic>  (5) 
nan

>  <black_box_warning>  (5) 
0

>  <chebi_par_id>  (5) 
nan

>  <chemical_probe>  (5) 
0

>  <chirality>  (5) 
-1

>  <cross_references>  (5) 
[]

>  <dosed_ingredient>  (5) 
False

>  <first_approval>  (5) 
nan

>  <first_in_class>  (5) 
-1

>  <helm_notation>  (5) 
nan

>  <indication_class>  (5) 
nan

>  <inorganic_flag>  (5) 
-1

>  <max_phase>  (5) 
nan

>  <molecule_hierarchy>  (5) 
{'active_chembl_id': 'CHEMBL4175014', 'molecule_chembl_id': 'CHEMBL4175014', 'parent_chembl_id': 'CHEMBL4175014'}

>  <molecule_properties>  (5) 
{'alogp': '6.16', 'aromatic_rings': 4, 'cx_logd': '5.34', 'cx_logp': '5.88', 'cx_most_apka': None, 'cx_most_bpka': '7.76', 'full_molformula': 'C33H38N2O6', 'full_mwt': '558.68', 'hba': 8, 'hba_lipinski': 8, 'hbd': 0, 'hbd_lipinski': 0, 'heavy_atoms': 41, 'molecular_species': 'NEUTRAL', 'mw_freebase': '558.68', 'mw_monoisotopic': '558.2730', 'np_likeness_score': '-0.57', 'num_lipinski_ro5_violations': 2, 'num_ro5_violations': 2, 'psa': '71.51', 'qed_weighted': '0.20', 'ro3_pass': 'N', 'rtb': 12}

>  <molecule_synonyms>  (5) 
[]

>  <molecule_type>  (5) 
Small molecule

>  <natural_product>  (5) 
0

>  <oral>  (5) 
False

>  <parenteral>  (5) 
False

>  <polymer_flag>  (5) 
0

>  <pref_name>  (5) 
nan

>  <prodrug>  (5) 
-1

>  <structure_type>  (5) 
MOL

>  <therapeutic_flag>  (5) 
False

>  <topical>  (5) 
False

>  <usan_stem>  (5) 
nan

>  <usan_stem_definition>  (5) 
nan

>  <usan_substem>  (5) 
nan

>  <usan_year>  (5) 
nan

>  <withdrawn_flag>  (5) 
False

>  <smiles>  (5) 
CCCOc1ccc(-c2cc(OCCN3CCc4cc(OC)c(OC)cc4C3)c3c(OC)cc(OC)cc3n2)cc1

>  <cluster>  (5) 
4

$$$$
